* NGSPICE file created from gf180mcu_fd_io__asig_5p0_flat.ext - technology: gf180mcuD

.subckt gf180mcu_fd_io__asig_5p0_flat VSS VDD DVSS DVDD ASIG5V
X0 DVDD.t1 DVSS.t37 cap_nmos_06v0 c_width=15u c_length=15u
X1 DVDD.t2 DVSS.t36 cap_nmos_06v0 c_width=15u c_length=15u
X2 DVDD.t3 DVSS.t35 cap_nmos_06v0 c_width=15u c_length=15u
X3 DVDD.t4 DVSS.t34 cap_nmos_06v0 c_width=15u c_length=15u
X4 DVDD.t5 DVSS.t33 cap_nmos_06v0 c_width=15u c_length=15u
D0 DVSS.t4 DVDD.t6 diode_nd2ps_06v0 pj=82u area=40p
X5 DVDD.t7 DVSS.t32 cap_nmos_06v0 c_width=15u c_length=15u
X6 DVDD.t8 DVSS.t31 cap_nmos_06v0 c_width=15u c_length=15u
X7 DVDD.t9 DVSS.t30 cap_nmos_06v0 c_width=15u c_length=15u
X8 DVDD.t10 DVSS.t29 cap_nmos_06v0 c_width=15u c_length=15u
X9 DVDD.t11 DVSS.t28 cap_nmos_06v0 c_width=15u c_length=15u
X10 DVDD.t12 DVSS.t27 cap_nmos_06v0 c_width=15u c_length=15u
X11 DVDD.t13 DVSS.t26 cap_nmos_06v0 c_width=15u c_length=15u
X12 DVDD.t14 DVSS.t25 cap_nmos_06v0 c_width=15u c_length=15u
X13 DVDD.t15 DVSS.t24 cap_nmos_06v0 c_width=15u c_length=15u
X14 DVDD.t16 DVSS.t23 cap_nmos_06v0 c_width=15u c_length=15u
D1 DVSS.t0 ASIG5V.t0 diode_nd2ps_06v0 pj=0.106m area=0.15n
X15 DVDD.t17 DVSS.t22 cap_nmos_06v0 c_width=15u c_length=15u
X16 DVDD.t18 DVSS.t21 cap_nmos_06v0 c_width=15u c_length=15u
X17 DVDD.t19 DVSS.t20 cap_nmos_06v0 c_width=15u c_length=15u
D2 DVSS.t0 ASIG5V.t1 diode_nd2ps_06v0 pj=0.106m area=0.15n
D3 ASIG5V.t2 DVDD.t0 diode_pd2nw_06v0 pj=0.106m area=0.15n
X18 DVDD.t20 DVSS.t19 cap_nmos_06v0 c_width=15u c_length=15u
X19 DVDD.t21 DVSS.t18 cap_nmos_06v0 c_width=15u c_length=15u
D4 ASIG5V.t3 DVDD.t0 diode_pd2nw_06v0 pj=0.106m area=0.15n
D5 DVSS.t0 ASIG5V.t4 diode_nd2ps_06v0 pj=0.106m area=0.15n
X20 DVDD.t22 DVSS.t17 cap_nmos_06v0 c_width=15u c_length=15u
D6 ASIG5V.t5 DVDD.t0 diode_pd2nw_06v0 pj=0.106m area=0.15n
X21 DVDD.t23 DVSS.t16 cap_nmos_06v0 c_width=15u c_length=15u
X22 DVDD.t24 DVSS.t15 cap_nmos_06v0 c_width=15u c_length=15u
D7 DVSS.t4 DVDD.t25 diode_nd2ps_06v0 pj=82u area=40p
X23 DVDD.t26 DVSS.t14 cap_nmos_06v0 c_width=15u c_length=15u
X24 DVDD.t27 DVSS.t13 cap_nmos_06v0 c_width=15u c_length=15u
X25 DVDD.t28 DVSS.t12 cap_nmos_06v0 c_width=15u c_length=15u
X26 DVDD.t29 DVSS.t11 cap_nmos_06v0 c_width=15u c_length=15u
X27 DVDD.t30 DVSS.t10 cap_nmos_06v0 c_width=15u c_length=15u
D8 DVSS.t4 DVDD.t31 diode_nd2ps_06v0 pj=82u area=40p
X28 DVDD.t32 DVSS.t9 cap_nmos_06v0 c_width=15u c_length=15u
D9 DVSS.t0 ASIG5V.t6 diode_nd2ps_06v0 pj=0.106m area=0.15n
X29 DVDD.t33 DVSS.t8 cap_nmos_06v0 c_width=15u c_length=15u
X30 DVDD.t34 DVSS.t7 cap_nmos_06v0 c_width=15u c_length=15u
X31 DVDD.t35 DVSS.t6 cap_nmos_06v0 c_width=15u c_length=15u
X32 DVDD.t36 DVSS.t5 cap_nmos_06v0 c_width=15u c_length=15u
D10 DVSS.t4 DVDD.t37 diode_nd2ps_06v0 pj=82u area=40p
D11 ASIG5V.t7 DVDD.t0 diode_pd2nw_06v0 pj=0.106m area=0.15n
X33 DVDD.t38 DVSS.t3 cap_nmos_06v0 c_width=15u c_length=15u
X34 DVDD.t39 DVSS.t2 cap_nmos_06v0 c_width=15u c_length=15u
X35 DVDD.t40 DVSS.t1 cap_nmos_06v0 c_width=15u c_length=15u
R0 DVDD.n1305 DVDD.n1304 13378
R1 DVDD.n8641 DVDD.n1304 13378
R2 DVDD.n8641 DVDD.n8640 13378
R3 DVDD.n8640 DVDD.n1305 13378
R4 DVDD.n2343 DVDD.n2342 12277
R5 DVDD.n7728 DVDD.n2342 12277
R6 DVDD.n7728 DVDD.n7727 12277
R7 DVDD.n7727 DVDD.n2343 12277
R8 DVDD.n8587 DVDD.t0 893.734
R9 DVDD.n8616 DVDD.t0 893.734
R10 DVDD.n1372 DVDD.n1340 150.477
R11 DVDD.n8588 DVDD.n1372 150.477
R12 DVDD.n8618 DVDD.n1336 150.477
R13 DVDD.n8618 DVDD.n8617 150.477
R14 DVDD.n8590 DVDD.n8589 84.2907
R15 DVDD.n8590 DVDD.n1343 84.2907
R16 DVDD.n8502 DVDD.n1376 84.2907
R17 DVDD.n8502 DVDD.n1342 84.2907
R18 DVDD.n8429 DVDD.n1375 84.2907
R19 DVDD.n8429 DVDD.n1337 84.2907
R20 DVDD.n8587 DVDD.n1374 26.3372
R21 DVDD.n8616 DVDD.n1341 26.3372
R22 DVDD.n1343 DVDD.n1340 12.9878
R23 DVDD.n1376 DVDD.n1371 12.9878
R24 DVDD.n8589 DVDD.n1371 12.9878
R25 DVDD.n8589 DVDD.n8588 12.9878
R26 DVDD.n1339 DVDD.n1337 12.9878
R27 DVDD.n1342 DVDD.n1339 12.9878
R28 DVDD.n8615 DVDD.n1342 12.9878
R29 DVDD.n8615 DVDD.n1343 12.9878
R30 DVDD.n1375 DVDD.n1336 12.9878
R31 DVDD.n8586 DVDD.n1375 12.9878
R32 DVDD.n8586 DVDD.n1376 12.9878
R33 DVDD.n8617 DVDD.n1337 12.9878
R34 DVDD.n5377 DVDD.n4472 4.5005
R35 DVDD.n5377 DVDD.n4470 4.5005
R36 DVDD.n5466 DVDD.n5377 4.5005
R37 DVDD.n5419 DVDD.n4472 4.5005
R38 DVDD.n5466 DVDD.n5419 4.5005
R39 DVDD.n4483 DVDD.n4472 4.5005
R40 DVDD.n5466 DVDD.n4483 4.5005
R41 DVDD.n5422 DVDD.n4472 4.5005
R42 DVDD.n5422 DVDD.n4470 4.5005
R43 DVDD.n5466 DVDD.n5422 4.5005
R44 DVDD.n4482 DVDD.n4471 4.5005
R45 DVDD.n4482 DVDD.n4472 4.5005
R46 DVDD.n4482 DVDD.n4470 4.5005
R47 DVDD.n5466 DVDD.n4482 4.5005
R48 DVDD.n5423 DVDD.n4471 4.5005
R49 DVDD.n5423 DVDD.n4472 4.5005
R50 DVDD.n5423 DVDD.n4470 4.5005
R51 DVDD.n5466 DVDD.n5423 4.5005
R52 DVDD.n4481 DVDD.n4471 4.5005
R53 DVDD.n4481 DVDD.n4472 4.5005
R54 DVDD.n4481 DVDD.n4470 4.5005
R55 DVDD.n5466 DVDD.n4481 4.5005
R56 DVDD.n5424 DVDD.n4471 4.5005
R57 DVDD.n5424 DVDD.n4472 4.5005
R58 DVDD.n5424 DVDD.n4470 4.5005
R59 DVDD.n5466 DVDD.n5424 4.5005
R60 DVDD.n4480 DVDD.n4471 4.5005
R61 DVDD.n4480 DVDD.n4472 4.5005
R62 DVDD.n4480 DVDD.n4470 4.5005
R63 DVDD.n5466 DVDD.n4480 4.5005
R64 DVDD.n5425 DVDD.n4471 4.5005
R65 DVDD.n5425 DVDD.n4472 4.5005
R66 DVDD.n5425 DVDD.n4470 4.5005
R67 DVDD.n5466 DVDD.n5425 4.5005
R68 DVDD.n4479 DVDD.n4471 4.5005
R69 DVDD.n4479 DVDD.n4472 4.5005
R70 DVDD.n4479 DVDD.n4470 4.5005
R71 DVDD.n5466 DVDD.n4479 4.5005
R72 DVDD.n5426 DVDD.n4471 4.5005
R73 DVDD.n5426 DVDD.n4472 4.5005
R74 DVDD.n5426 DVDD.n4470 4.5005
R75 DVDD.n5466 DVDD.n5426 4.5005
R76 DVDD.n4478 DVDD.n4471 4.5005
R77 DVDD.n4478 DVDD.n4472 4.5005
R78 DVDD.n4478 DVDD.n4470 4.5005
R79 DVDD.n5466 DVDD.n4478 4.5005
R80 DVDD.n5427 DVDD.n4471 4.5005
R81 DVDD.n5427 DVDD.n4472 4.5005
R82 DVDD.n5427 DVDD.n4470 4.5005
R83 DVDD.n5466 DVDD.n5427 4.5005
R84 DVDD.n4477 DVDD.n4471 4.5005
R85 DVDD.n4477 DVDD.n4472 4.5005
R86 DVDD.n4477 DVDD.n4470 4.5005
R87 DVDD.n5466 DVDD.n4477 4.5005
R88 DVDD.n5428 DVDD.n4471 4.5005
R89 DVDD.n5428 DVDD.n4472 4.5005
R90 DVDD.n5428 DVDD.n4470 4.5005
R91 DVDD.n5466 DVDD.n5428 4.5005
R92 DVDD.n4476 DVDD.n4471 4.5005
R93 DVDD.n4476 DVDD.n4472 4.5005
R94 DVDD.n4476 DVDD.n4470 4.5005
R95 DVDD.n5466 DVDD.n4476 4.5005
R96 DVDD.n5429 DVDD.n4471 4.5005
R97 DVDD.n5429 DVDD.n4472 4.5005
R98 DVDD.n5429 DVDD.n4470 4.5005
R99 DVDD.n5466 DVDD.n5429 4.5005
R100 DVDD.n4475 DVDD.n4471 4.5005
R101 DVDD.n4475 DVDD.n4472 4.5005
R102 DVDD.n4475 DVDD.n4470 4.5005
R103 DVDD.n5466 DVDD.n4475 4.5005
R104 DVDD.n5430 DVDD.n4471 4.5005
R105 DVDD.n5430 DVDD.n4472 4.5005
R106 DVDD.n5430 DVDD.n4470 4.5005
R107 DVDD.n5466 DVDD.n5430 4.5005
R108 DVDD.n4474 DVDD.n4471 4.5005
R109 DVDD.n4474 DVDD.n4472 4.5005
R110 DVDD.n4474 DVDD.n4470 4.5005
R111 DVDD.n5466 DVDD.n4474 4.5005
R112 DVDD.n5465 DVDD.n4471 4.5005
R113 DVDD.n5465 DVDD.n4472 4.5005
R114 DVDD.n5465 DVDD.n4470 4.5005
R115 DVDD.n5466 DVDD.n5465 4.5005
R116 DVDD.n5467 DVDD.n4471 4.5005
R117 DVDD.n5467 DVDD.n4472 4.5005
R118 DVDD.n5467 DVDD.n4470 4.5005
R119 DVDD.n5467 DVDD.n5466 4.5005
R120 DVDD.n4471 DVDD.n4467 4.5005
R121 DVDD.n4472 DVDD.n4467 4.5005
R122 DVDD.n4470 DVDD.n4467 4.5005
R123 DVDD.n5466 DVDD.n4467 4.5005
R124 DVDD.n5659 DVDD.n4465 4.5005
R125 DVDD.n4465 DVDD.n4459 4.5005
R126 DVDD.n5483 DVDD.n4465 4.5005
R127 DVDD.n5657 DVDD.n4465 4.5005
R128 DVDD.n5659 DVDD.n4464 4.5005
R129 DVDD.n4464 DVDD.n4459 4.5005
R130 DVDD.n5483 DVDD.n4464 4.5005
R131 DVDD.n5657 DVDD.n4464 4.5005
R132 DVDD.n5659 DVDD.n5480 4.5005
R133 DVDD.n5480 DVDD.n4459 4.5005
R134 DVDD.n5483 DVDD.n5480 4.5005
R135 DVDD.n5657 DVDD.n5480 4.5005
R136 DVDD.n5659 DVDD.n4463 4.5005
R137 DVDD.n4463 DVDD.n4459 4.5005
R138 DVDD.n5657 DVDD.n4463 4.5005
R139 DVDD.n5652 DVDD.n4459 4.5005
R140 DVDD.n5657 DVDD.n5652 4.5005
R141 DVDD.n5643 DVDD.n4459 4.5005
R142 DVDD.n5657 DVDD.n5643 4.5005
R143 DVDD.n5654 DVDD.n4459 4.5005
R144 DVDD.n5657 DVDD.n5654 4.5005
R145 DVDD.n5642 DVDD.n4459 4.5005
R146 DVDD.n5657 DVDD.n5642 4.5005
R147 DVDD.n5656 DVDD.n4459 4.5005
R148 DVDD.n5657 DVDD.n5656 4.5005
R149 DVDD.n5641 DVDD.n4459 4.5005
R150 DVDD.n5641 DVDD.n5483 4.5005
R151 DVDD.n5657 DVDD.n5641 4.5005
R152 DVDD.n5659 DVDD.n5658 4.5005
R153 DVDD.n5658 DVDD.n4459 4.5005
R154 DVDD.n5658 DVDD.n5483 4.5005
R155 DVDD.n5658 DVDD.n5657 4.5005
R156 DVDD.n5615 DVDD.n5493 4.5005
R157 DVDD.n5615 DVDD.n5495 4.5005
R158 DVDD.n5615 DVDD.n5492 4.5005
R159 DVDD.n5615 DVDD.n5614 4.5005
R160 DVDD.n5531 DVDD.n5493 4.5005
R161 DVDD.n5531 DVDD.n5495 4.5005
R162 DVDD.n5531 DVDD.n5492 4.5005
R163 DVDD.n5614 DVDD.n5531 4.5005
R164 DVDD.n5507 DVDD.n5493 4.5005
R165 DVDD.n5507 DVDD.n5495 4.5005
R166 DVDD.n5507 DVDD.n5492 4.5005
R167 DVDD.n5614 DVDD.n5507 4.5005
R168 DVDD.n5532 DVDD.n5493 4.5005
R169 DVDD.n5532 DVDD.n5495 4.5005
R170 DVDD.n5532 DVDD.n5492 4.5005
R171 DVDD.n5614 DVDD.n5532 4.5005
R172 DVDD.n5506 DVDD.n5493 4.5005
R173 DVDD.n5506 DVDD.n5495 4.5005
R174 DVDD.n5506 DVDD.n5492 4.5005
R175 DVDD.n5614 DVDD.n5506 4.5005
R176 DVDD.n5533 DVDD.n5493 4.5005
R177 DVDD.n5533 DVDD.n5495 4.5005
R178 DVDD.n5533 DVDD.n5492 4.5005
R179 DVDD.n5614 DVDD.n5533 4.5005
R180 DVDD.n5505 DVDD.n5493 4.5005
R181 DVDD.n5505 DVDD.n5495 4.5005
R182 DVDD.n5505 DVDD.n5492 4.5005
R183 DVDD.n5614 DVDD.n5505 4.5005
R184 DVDD.n5549 DVDD.n5493 4.5005
R185 DVDD.n5549 DVDD.n5495 4.5005
R186 DVDD.n5549 DVDD.n5492 4.5005
R187 DVDD.n5614 DVDD.n5549 4.5005
R188 DVDD.n5504 DVDD.n5493 4.5005
R189 DVDD.n5504 DVDD.n5495 4.5005
R190 DVDD.n5504 DVDD.n5492 4.5005
R191 DVDD.n5614 DVDD.n5504 4.5005
R192 DVDD.n5552 DVDD.n5493 4.5005
R193 DVDD.n5552 DVDD.n5495 4.5005
R194 DVDD.n5614 DVDD.n5552 4.5005
R195 DVDD.n5503 DVDD.n5495 4.5005
R196 DVDD.n5614 DVDD.n5503 4.5005
R197 DVDD.n5555 DVDD.n5495 4.5005
R198 DVDD.n5614 DVDD.n5555 4.5005
R199 DVDD.n5502 DVDD.n5495 4.5005
R200 DVDD.n5614 DVDD.n5502 4.5005
R201 DVDD.n5558 DVDD.n5495 4.5005
R202 DVDD.n5614 DVDD.n5558 4.5005
R203 DVDD.n5501 DVDD.n5495 4.5005
R204 DVDD.n5614 DVDD.n5501 4.5005
R205 DVDD.n5561 DVDD.n5495 4.5005
R206 DVDD.n5561 DVDD.n5492 4.5005
R207 DVDD.n5614 DVDD.n5561 4.5005
R208 DVDD.n5500 DVDD.n5493 4.5005
R209 DVDD.n5500 DVDD.n5495 4.5005
R210 DVDD.n5500 DVDD.n5492 4.5005
R211 DVDD.n5614 DVDD.n5500 4.5005
R212 DVDD.n5562 DVDD.n5493 4.5005
R213 DVDD.n5562 DVDD.n5495 4.5005
R214 DVDD.n5562 DVDD.n5492 4.5005
R215 DVDD.n5614 DVDD.n5562 4.5005
R216 DVDD.n5499 DVDD.n5493 4.5005
R217 DVDD.n5499 DVDD.n5495 4.5005
R218 DVDD.n5499 DVDD.n5492 4.5005
R219 DVDD.n5614 DVDD.n5499 4.5005
R220 DVDD.n5563 DVDD.n5493 4.5005
R221 DVDD.n5563 DVDD.n5495 4.5005
R222 DVDD.n5563 DVDD.n5492 4.5005
R223 DVDD.n5614 DVDD.n5563 4.5005
R224 DVDD.n5498 DVDD.n5493 4.5005
R225 DVDD.n5498 DVDD.n5495 4.5005
R226 DVDD.n5498 DVDD.n5492 4.5005
R227 DVDD.n5614 DVDD.n5498 4.5005
R228 DVDD.n5564 DVDD.n5493 4.5005
R229 DVDD.n5564 DVDD.n5495 4.5005
R230 DVDD.n5564 DVDD.n5492 4.5005
R231 DVDD.n5614 DVDD.n5564 4.5005
R232 DVDD.n5497 DVDD.n5493 4.5005
R233 DVDD.n5497 DVDD.n5495 4.5005
R234 DVDD.n5497 DVDD.n5492 4.5005
R235 DVDD.n5614 DVDD.n5497 4.5005
R236 DVDD.n5613 DVDD.n5493 4.5005
R237 DVDD.n5613 DVDD.n5495 4.5005
R238 DVDD.n5613 DVDD.n5492 4.5005
R239 DVDD.n5614 DVDD.n5613 4.5005
R240 DVDD.n7024 DVDD.n2535 4.5005
R241 DVDD.n7020 DVDD.n2535 4.5005
R242 DVDD.n2535 DVDD.n2522 4.5005
R243 DVDD.n2535 DVDD.n2521 4.5005
R244 DVDD.n7024 DVDD.n2537 4.5005
R245 DVDD.n7020 DVDD.n2537 4.5005
R246 DVDD.n2537 DVDD.n2522 4.5005
R247 DVDD.n2537 DVDD.n2521 4.5005
R248 DVDD.n7024 DVDD.n2534 4.5005
R249 DVDD.n7020 DVDD.n2534 4.5005
R250 DVDD.n2534 DVDD.n2522 4.5005
R251 DVDD.n2534 DVDD.n2521 4.5005
R252 DVDD.n7024 DVDD.n2538 4.5005
R253 DVDD.n7020 DVDD.n2538 4.5005
R254 DVDD.n2538 DVDD.n2522 4.5005
R255 DVDD.n2538 DVDD.n2521 4.5005
R256 DVDD.n7024 DVDD.n2533 4.5005
R257 DVDD.n7020 DVDD.n2533 4.5005
R258 DVDD.n2533 DVDD.n2522 4.5005
R259 DVDD.n2533 DVDD.n2521 4.5005
R260 DVDD.n7024 DVDD.n2539 4.5005
R261 DVDD.n7020 DVDD.n2539 4.5005
R262 DVDD.n2539 DVDD.n2522 4.5005
R263 DVDD.n2539 DVDD.n2521 4.5005
R264 DVDD.n7024 DVDD.n2532 4.5005
R265 DVDD.n7020 DVDD.n2532 4.5005
R266 DVDD.n2532 DVDD.n2522 4.5005
R267 DVDD.n2532 DVDD.n2521 4.5005
R268 DVDD.n7024 DVDD.n2540 4.5005
R269 DVDD.n7020 DVDD.n2540 4.5005
R270 DVDD.n2540 DVDD.n2522 4.5005
R271 DVDD.n2540 DVDD.n2521 4.5005
R272 DVDD.n7024 DVDD.n2531 4.5005
R273 DVDD.n7020 DVDD.n2531 4.5005
R274 DVDD.n2531 DVDD.n2522 4.5005
R275 DVDD.n2531 DVDD.n2521 4.5005
R276 DVDD.n7024 DVDD.n2541 4.5005
R277 DVDD.n7020 DVDD.n2541 4.5005
R278 DVDD.n2541 DVDD.n2522 4.5005
R279 DVDD.n2541 DVDD.n2521 4.5005
R280 DVDD.n7024 DVDD.n2530 4.5005
R281 DVDD.n7020 DVDD.n2530 4.5005
R282 DVDD.n2530 DVDD.n2522 4.5005
R283 DVDD.n2530 DVDD.n2521 4.5005
R284 DVDD.n7024 DVDD.n2542 4.5005
R285 DVDD.n7020 DVDD.n2542 4.5005
R286 DVDD.n2542 DVDD.n2522 4.5005
R287 DVDD.n2542 DVDD.n2521 4.5005
R288 DVDD.n7024 DVDD.n2529 4.5005
R289 DVDD.n7020 DVDD.n2529 4.5005
R290 DVDD.n2529 DVDD.n2522 4.5005
R291 DVDD.n2529 DVDD.n2521 4.5005
R292 DVDD.n7024 DVDD.n2543 4.5005
R293 DVDD.n7020 DVDD.n2543 4.5005
R294 DVDD.n2543 DVDD.n2522 4.5005
R295 DVDD.n2543 DVDD.n2521 4.5005
R296 DVDD.n7024 DVDD.n2528 4.5005
R297 DVDD.n7020 DVDD.n2528 4.5005
R298 DVDD.n2528 DVDD.n2522 4.5005
R299 DVDD.n2528 DVDD.n2521 4.5005
R300 DVDD.n7024 DVDD.n2545 4.5005
R301 DVDD.n7020 DVDD.n2545 4.5005
R302 DVDD.n2545 DVDD.n2521 4.5005
R303 DVDD.n2527 DVDD.n2521 4.5005
R304 DVDD.n7024 DVDD.n2527 4.5005
R305 DVDD.n2547 DVDD.n2522 4.5005
R306 DVDD.n7024 DVDD.n2547 4.5005
R307 DVDD.n2526 DVDD.n2522 4.5005
R308 DVDD.n7024 DVDD.n2526 4.5005
R309 DVDD.n2549 DVDD.n2522 4.5005
R310 DVDD.n7024 DVDD.n2549 4.5005
R311 DVDD.n2525 DVDD.n2522 4.5005
R312 DVDD.n7024 DVDD.n2525 4.5005
R313 DVDD.n7023 DVDD.n2522 4.5005
R314 DVDD.n7024 DVDD.n7023 4.5005
R315 DVDD.n2524 DVDD.n2522 4.5005
R316 DVDD.n7024 DVDD.n2524 4.5005
R317 DVDD.n7025 DVDD.n2521 4.5005
R318 DVDD.n7025 DVDD.n2522 4.5005
R319 DVDD.n7025 DVDD.n7024 4.5005
R320 DVDD.n7550 DVDD.n7026 4.5005
R321 DVDD.n7026 DVDD.n2508 4.5005
R322 DVDD.n7548 DVDD.n7026 4.5005
R323 DVDD.n7524 DVDD.n2508 4.5005
R324 DVDD.n7548 DVDD.n7524 4.5005
R325 DVDD.n7521 DVDD.n2508 4.5005
R326 DVDD.n7548 DVDD.n7521 4.5005
R327 DVDD.n7525 DVDD.n2508 4.5005
R328 DVDD.n7548 DVDD.n7525 4.5005
R329 DVDD.n7520 DVDD.n2508 4.5005
R330 DVDD.n7548 DVDD.n7520 4.5005
R331 DVDD.n7526 DVDD.n2508 4.5005
R332 DVDD.n7548 DVDD.n7526 4.5005
R333 DVDD.n7519 DVDD.n2508 4.5005
R334 DVDD.n7548 DVDD.n7519 4.5005
R335 DVDD.n7527 DVDD.n2508 4.5005
R336 DVDD.n7548 DVDD.n7527 4.5005
R337 DVDD.n7518 DVDD.n2508 4.5005
R338 DVDD.n7548 DVDD.n7518 4.5005
R339 DVDD.n7528 DVDD.n2508 4.5005
R340 DVDD.n7548 DVDD.n7528 4.5005
R341 DVDD.n7517 DVDD.n2508 4.5005
R342 DVDD.n7548 DVDD.n7517 4.5005
R343 DVDD.n7529 DVDD.n2508 4.5005
R344 DVDD.n7548 DVDD.n7529 4.5005
R345 DVDD.n7516 DVDD.n2508 4.5005
R346 DVDD.n7548 DVDD.n7516 4.5005
R347 DVDD.n7530 DVDD.n2508 4.5005
R348 DVDD.n7548 DVDD.n7530 4.5005
R349 DVDD.n7515 DVDD.n2508 4.5005
R350 DVDD.n7548 DVDD.n7515 4.5005
R351 DVDD.n7531 DVDD.n2508 4.5005
R352 DVDD.n7548 DVDD.n7531 4.5005
R353 DVDD.n7514 DVDD.n2508 4.5005
R354 DVDD.n7548 DVDD.n7514 4.5005
R355 DVDD.n7532 DVDD.n2508 4.5005
R356 DVDD.n7548 DVDD.n7532 4.5005
R357 DVDD.n7513 DVDD.n2508 4.5005
R358 DVDD.n7548 DVDD.n7513 4.5005
R359 DVDD.n7533 DVDD.n2508 4.5005
R360 DVDD.n7548 DVDD.n7533 4.5005
R361 DVDD.n7512 DVDD.n2508 4.5005
R362 DVDD.n7548 DVDD.n7512 4.5005
R363 DVDD.n7547 DVDD.n2508 4.5005
R364 DVDD.n7548 DVDD.n7547 4.5005
R365 DVDD.n7511 DVDD.n2508 4.5005
R366 DVDD.n7548 DVDD.n7511 4.5005
R367 DVDD.n7550 DVDD.n7549 4.5005
R368 DVDD.n7549 DVDD.n2508 4.5005
R369 DVDD.n7549 DVDD.n7548 4.5005
R370 DVDD.n7509 DVDD.n7029 4.5005
R371 DVDD.n7509 DVDD.n7030 4.5005
R372 DVDD.n7509 DVDD.n7508 4.5005
R373 DVDD.n7045 DVDD.n7030 4.5005
R374 DVDD.n7508 DVDD.n7045 4.5005
R375 DVDD.n7042 DVDD.n7030 4.5005
R376 DVDD.n7508 DVDD.n7042 4.5005
R377 DVDD.n7047 DVDD.n7030 4.5005
R378 DVDD.n7508 DVDD.n7047 4.5005
R379 DVDD.n7041 DVDD.n7030 4.5005
R380 DVDD.n7508 DVDD.n7041 4.5005
R381 DVDD.n7049 DVDD.n7030 4.5005
R382 DVDD.n7508 DVDD.n7049 4.5005
R383 DVDD.n7040 DVDD.n7030 4.5005
R384 DVDD.n7508 DVDD.n7040 4.5005
R385 DVDD.n7051 DVDD.n7030 4.5005
R386 DVDD.n7508 DVDD.n7051 4.5005
R387 DVDD.n7039 DVDD.n7030 4.5005
R388 DVDD.n7508 DVDD.n7039 4.5005
R389 DVDD.n7053 DVDD.n7030 4.5005
R390 DVDD.n7508 DVDD.n7053 4.5005
R391 DVDD.n7038 DVDD.n7030 4.5005
R392 DVDD.n7508 DVDD.n7038 4.5005
R393 DVDD.n7055 DVDD.n7030 4.5005
R394 DVDD.n7508 DVDD.n7055 4.5005
R395 DVDD.n7037 DVDD.n7030 4.5005
R396 DVDD.n7508 DVDD.n7037 4.5005
R397 DVDD.n7057 DVDD.n7030 4.5005
R398 DVDD.n7508 DVDD.n7057 4.5005
R399 DVDD.n7036 DVDD.n7030 4.5005
R400 DVDD.n7508 DVDD.n7036 4.5005
R401 DVDD.n7059 DVDD.n7030 4.5005
R402 DVDD.n7508 DVDD.n7059 4.5005
R403 DVDD.n7035 DVDD.n7030 4.5005
R404 DVDD.n7508 DVDD.n7035 4.5005
R405 DVDD.n7061 DVDD.n7030 4.5005
R406 DVDD.n7508 DVDD.n7061 4.5005
R407 DVDD.n7034 DVDD.n7030 4.5005
R408 DVDD.n7508 DVDD.n7034 4.5005
R409 DVDD.n7063 DVDD.n7030 4.5005
R410 DVDD.n7508 DVDD.n7063 4.5005
R411 DVDD.n7033 DVDD.n7030 4.5005
R412 DVDD.n7508 DVDD.n7033 4.5005
R413 DVDD.n7065 DVDD.n7030 4.5005
R414 DVDD.n7508 DVDD.n7065 4.5005
R415 DVDD.n7032 DVDD.n7030 4.5005
R416 DVDD.n7508 DVDD.n7032 4.5005
R417 DVDD.n7507 DVDD.n7029 4.5005
R418 DVDD.n7507 DVDD.n7030 4.5005
R419 DVDD.n7508 DVDD.n7507 4.5005
R420 DVDD.n6543 DVDD.n6542 4.5005
R421 DVDD.n6541 DVDD.n6540 4.5005
R422 DVDD.n6539 DVDD.n6538 4.5005
R423 DVDD.n6537 DVDD.n6536 4.5005
R424 DVDD.n6535 DVDD.n6534 4.5005
R425 DVDD.n6533 DVDD.n6532 4.5005
R426 DVDD.n6531 DVDD.n6530 4.5005
R427 DVDD.n6529 DVDD.n6528 4.5005
R428 DVDD.n6527 DVDD.n3356 4.5005
R429 DVDD.n6526 DVDD.n3358 4.5005
R430 DVDD.n6525 DVDD.n6524 4.5005
R431 DVDD.n6523 DVDD.n6522 4.5005
R432 DVDD.n6521 DVDD.n6520 4.5005
R433 DVDD.n6519 DVDD.n6518 4.5005
R434 DVDD.n6517 DVDD.n6516 4.5005
R435 DVDD.n6515 DVDD.n6514 4.5005
R436 DVDD.n6513 DVDD.n6512 4.5005
R437 DVDD.n6511 DVDD.n6510 4.5005
R438 DVDD.n6509 DVDD.n6508 4.5005
R439 DVDD.n6507 DVDD.n6506 4.5005
R440 DVDD.n6505 DVDD.n6504 4.5005
R441 DVDD.n6503 DVDD.n6502 4.5005
R442 DVDD.n6501 DVDD.n6500 4.5005
R443 DVDD.n6499 DVDD.n6498 4.5005
R444 DVDD.n6497 DVDD.n6496 4.5005
R445 DVDD.n6495 DVDD.n6494 4.5005
R446 DVDD.n6493 DVDD.n6492 4.5005
R447 DVDD.n6491 DVDD.n6490 4.5005
R448 DVDD.n6489 DVDD.n6488 4.5005
R449 DVDD.n6300 DVDD.n3417 4.5005
R450 DVDD.n6298 DVDD.n6297 4.5005
R451 DVDD.n6296 DVDD.n6245 4.5005
R452 DVDD.n6295 DVDD.n6294 4.5005
R453 DVDD.n6293 DVDD.n6246 4.5005
R454 DVDD.n6292 DVDD.n6291 4.5005
R455 DVDD.n6290 DVDD.n6247 4.5005
R456 DVDD.n6289 DVDD.n6288 4.5005
R457 DVDD.n6287 DVDD.n6248 4.5005
R458 DVDD.n6286 DVDD.n6285 4.5005
R459 DVDD.n6284 DVDD.n6249 4.5005
R460 DVDD.n6283 DVDD.n6282 4.5005
R461 DVDD.n6281 DVDD.n6250 4.5005
R462 DVDD.n6280 DVDD.n6279 4.5005
R463 DVDD.n6278 DVDD.n6251 4.5005
R464 DVDD.n6277 DVDD.n6276 4.5005
R465 DVDD.n6275 DVDD.n6252 4.5005
R466 DVDD.n6274 DVDD.n6273 4.5005
R467 DVDD.n6272 DVDD.n6253 4.5005
R468 DVDD.n6271 DVDD.n6270 4.5005
R469 DVDD.n6269 DVDD.n6268 4.5005
R470 DVDD.n6267 DVDD.n6266 4.5005
R471 DVDD.n6265 DVDD.n6264 4.5005
R472 DVDD.n6263 DVDD.n6262 4.5005
R473 DVDD.n6261 DVDD.n6260 4.5005
R474 DVDD.n6259 DVDD.n6258 4.5005
R475 DVDD.n6257 DVDD.n6256 4.5005
R476 DVDD.n6255 DVDD.n6254 4.5005
R477 DVDD.n3416 DVDD.n3415 4.5005
R478 DVDD.n6337 DVDD.n6336 4.5005
R479 DVDD.n3559 DVDD.n3555 4.5005
R480 DVDD.n3821 DVDD.n3820 4.5005
R481 DVDD.n3823 DVDD.n3822 4.5005
R482 DVDD.n3825 DVDD.n3824 4.5005
R483 DVDD.n3827 DVDD.n3826 4.5005
R484 DVDD.n3829 DVDD.n3828 4.5005
R485 DVDD.n3831 DVDD.n3830 4.5005
R486 DVDD.n3833 DVDD.n3832 4.5005
R487 DVDD.n3835 DVDD.n3834 4.5005
R488 DVDD.n3837 DVDD.n3836 4.5005
R489 DVDD.n3839 DVDD.n3838 4.5005
R490 DVDD.n3841 DVDD.n3840 4.5005
R491 DVDD.n3843 DVDD.n3842 4.5005
R492 DVDD.n3845 DVDD.n3844 4.5005
R493 DVDD.n3847 DVDD.n3846 4.5005
R494 DVDD.n3849 DVDD.n3848 4.5005
R495 DVDD.n3851 DVDD.n3850 4.5005
R496 DVDD.n3853 DVDD.n3852 4.5005
R497 DVDD.n3855 DVDD.n3854 4.5005
R498 DVDD.n3857 DVDD.n3856 4.5005
R499 DVDD.n3859 DVDD.n3858 4.5005
R500 DVDD.n3860 DVDD.n3818 4.5005
R501 DVDD.n6332 DVDD.n6331 4.5005
R502 DVDD.n6330 DVDD.n3819 4.5005
R503 DVDD.n6329 DVDD.n6328 4.5005
R504 DVDD.n3863 DVDD.n3861 4.5005
R505 DVDD.n6323 DVDD.n6322 4.5005
R506 DVDD.n3867 DVDD.n3554 4.5005
R507 DVDD.n3702 DVDD.n3577 4.5005
R508 DVDD.n3701 DVDD.n3700 4.5005
R509 DVDD.n3699 DVDD.n3650 4.5005
R510 DVDD.n3698 DVDD.n3697 4.5005
R511 DVDD.n3696 DVDD.n3651 4.5005
R512 DVDD.n3695 DVDD.n3694 4.5005
R513 DVDD.n3693 DVDD.n3652 4.5005
R514 DVDD.n3692 DVDD.n3691 4.5005
R515 DVDD.n3690 DVDD.n3653 4.5005
R516 DVDD.n3689 DVDD.n3688 4.5005
R517 DVDD.n3687 DVDD.n3654 4.5005
R518 DVDD.n3686 DVDD.n3685 4.5005
R519 DVDD.n3684 DVDD.n3655 4.5005
R520 DVDD.n3683 DVDD.n3682 4.5005
R521 DVDD.n3681 DVDD.n3656 4.5005
R522 DVDD.n3680 DVDD.n3679 4.5005
R523 DVDD.n3678 DVDD.n3657 4.5005
R524 DVDD.n3677 DVDD.n3676 4.5005
R525 DVDD.n3675 DVDD.n3658 4.5005
R526 DVDD.n3674 DVDD.n3673 4.5005
R527 DVDD.n3672 DVDD.n3659 4.5005
R528 DVDD.n3671 DVDD.n3670 4.5005
R529 DVDD.n3669 DVDD.n3660 4.5005
R530 DVDD.n3668 DVDD.n3667 4.5005
R531 DVDD.n3666 DVDD.n3661 4.5005
R532 DVDD.n3665 DVDD.n3664 4.5005
R533 DVDD.n3663 DVDD.n3662 4.5005
R534 DVDD.n3575 DVDD.n3574 4.5005
R535 DVDD.n3804 DVDD.n3803 4.5005
R536 DVDD.n3582 DVDD.n1010 4.5005
R537 DVDD.n3637 DVDD.n1041 4.5005
R538 DVDD.n3638 DVDD.n1042 4.5005
R539 DVDD.n3740 DVDD.n3739 4.5005
R540 DVDD.n3738 DVDD.n3636 4.5005
R541 DVDD.n3737 DVDD.n1049 4.5005
R542 DVDD.n3736 DVDD.n1050 4.5005
R543 DVDD.n3735 DVDD.n3734 4.5005
R544 DVDD.n3733 DVDD.n3639 4.5005
R545 DVDD.n3732 DVDD.n3731 4.5005
R546 DVDD.n3730 DVDD.n3641 4.5005
R547 DVDD.n3729 DVDD.n3728 4.5005
R548 DVDD.n3727 DVDD.n3642 4.5005
R549 DVDD.n3726 DVDD.n3725 4.5005
R550 DVDD.n3724 DVDD.n3643 4.5005
R551 DVDD.n3723 DVDD.n3722 4.5005
R552 DVDD.n3721 DVDD.n3644 4.5005
R553 DVDD.n3720 DVDD.n3719 4.5005
R554 DVDD.n3718 DVDD.n3645 4.5005
R555 DVDD.n3717 DVDD.n3716 4.5005
R556 DVDD.n3715 DVDD.n3646 4.5005
R557 DVDD.n3714 DVDD.n3713 4.5005
R558 DVDD.n3712 DVDD.n3647 4.5005
R559 DVDD.n3711 DVDD.n3710 4.5005
R560 DVDD.n3709 DVDD.n3648 4.5005
R561 DVDD.n3708 DVDD.n3707 4.5005
R562 DVDD.n3706 DVDD.n3649 4.5005
R563 DVDD.n3705 DVDD.n3704 4.5005
R564 DVDD.n3703 DVDD.n3581 4.5005
R565 DVDD.n9633 DVDD.n9632 4.5005
R566 DVDD.n9631 DVDD.n79 4.5005
R567 DVDD.n9630 DVDD.n9629 4.5005
R568 DVDD.n82 DVDD.n80 4.5005
R569 DVDD.n844 DVDD.n843 4.5005
R570 DVDD.n845 DVDD.n91 4.5005
R571 DVDD.n846 DVDD.n92 4.5005
R572 DVDD.n8770 DVDD.n8769 4.5005
R573 DVDD.n8768 DVDD.n8767 4.5005
R574 DVDD.n848 DVDD.n847 4.5005
R575 DVDD.n930 DVDD.n855 4.5005
R576 DVDD.n940 DVDD.n939 4.5005
R577 DVDD.n938 DVDD.n864 4.5005
R578 DVDD.n937 DVDD.n865 4.5005
R579 DVDD.n936 DVDD.n935 4.5005
R580 DVDD.n934 DVDD.n932 4.5005
R581 DVDD.n931 DVDD.n873 4.5005
R582 DVDD.n878 DVDD.n874 4.5005
R583 DVDD.n8744 DVDD.n8743 4.5005
R584 DVDD.n8742 DVDD.n8741 4.5005
R585 DVDD.n8740 DVDD.n879 4.5005
R586 DVDD.n887 DVDD.n880 4.5005
R587 DVDD.n8723 DVDD.n8722 4.5005
R588 DVDD.n8721 DVDD.n8720 4.5005
R589 DVDD.n889 DVDD.n888 4.5005
R590 DVDD.n914 DVDD.n896 4.5005
R591 DVDD.n916 DVDD.n915 4.5005
R592 DVDD.n998 DVDD.n997 4.5005
R593 DVDD.n999 DVDD.n904 4.5005
R594 DVDD.n8835 DVDD.n8834 4.5005
R595 DVDD.n8833 DVDD.n789 4.5005
R596 DVDD.n8832 DVDD.n8831 4.5005
R597 DVDD.n8830 DVDD.n8797 4.5005
R598 DVDD.n8829 DVDD.n8828 4.5005
R599 DVDD.n8827 DVDD.n8798 4.5005
R600 DVDD.n8826 DVDD.n8825 4.5005
R601 DVDD.n8824 DVDD.n8799 4.5005
R602 DVDD.n8823 DVDD.n8822 4.5005
R603 DVDD.n8821 DVDD.n8820 4.5005
R604 DVDD.n8819 DVDD.n8818 4.5005
R605 DVDD.n8817 DVDD.n8816 4.5005
R606 DVDD.n8815 DVDD.n8814 4.5005
R607 DVDD.n8813 DVDD.n8812 4.5005
R608 DVDD.n8811 DVDD.n8810 4.5005
R609 DVDD.n8809 DVDD.n8808 4.5005
R610 DVDD.n8807 DVDD.n8806 4.5005
R611 DVDD.n8805 DVDD.n8804 4.5005
R612 DVDD.n8803 DVDD.n8802 4.5005
R613 DVDD.n8801 DVDD.n8800 4.5005
R614 DVDD.n75 DVDD.n71 4.5005
R615 DVDD.n9645 DVDD.n9644 4.5005
R616 DVDD.n9643 DVDD.n74 4.5005
R617 DVDD.n9642 DVDD.n9641 4.5005
R618 DVDD.n9640 DVDD.n76 4.5005
R619 DVDD.n9639 DVDD.n9638 4.5005
R620 DVDD.n9637 DVDD.n77 4.5005
R621 DVDD.n9636 DVDD.n9635 4.5005
R622 DVDD.n9634 DVDD.n78 4.5005
R623 DVDD.n748 DVDD.n747 4.5005
R624 DVDD.n749 DVDD.n686 4.5005
R625 DVDD.n751 DVDD.n750 4.5005
R626 DVDD.n752 DVDD.n685 4.5005
R627 DVDD.n754 DVDD.n753 4.5005
R628 DVDD.n755 DVDD.n684 4.5005
R629 DVDD.n757 DVDD.n756 4.5005
R630 DVDD.n758 DVDD.n683 4.5005
R631 DVDD.n760 DVDD.n759 4.5005
R632 DVDD.n761 DVDD.n682 4.5005
R633 DVDD.n763 DVDD.n762 4.5005
R634 DVDD.n764 DVDD.n681 4.5005
R635 DVDD.n766 DVDD.n765 4.5005
R636 DVDD.n767 DVDD.n680 4.5005
R637 DVDD.n769 DVDD.n768 4.5005
R638 DVDD.n770 DVDD.n679 4.5005
R639 DVDD.n772 DVDD.n771 4.5005
R640 DVDD.n773 DVDD.n678 4.5005
R641 DVDD.n775 DVDD.n774 4.5005
R642 DVDD.n776 DVDD.n677 4.5005
R643 DVDD.n778 DVDD.n777 4.5005
R644 DVDD.n779 DVDD.n676 4.5005
R645 DVDD.n781 DVDD.n780 4.5005
R646 DVDD.n782 DVDD.n675 4.5005
R647 DVDD.n784 DVDD.n783 4.5005
R648 DVDD.n785 DVDD.n674 4.5005
R649 DVDD.n787 DVDD.n786 4.5005
R650 DVDD.n788 DVDD.n673 4.5005
R651 DVDD.n8837 DVDD.n8836 4.5005
R652 DVDD.n724 DVDD.n723 4.5005
R653 DVDD.n722 DVDD.n721 4.5005
R654 DVDD.n720 DVDD.n719 4.5005
R655 DVDD.n718 DVDD.n717 4.5005
R656 DVDD.n716 DVDD.n715 4.5005
R657 DVDD.n714 DVDD.n713 4.5005
R658 DVDD.n712 DVDD.n711 4.5005
R659 DVDD.n710 DVDD.n709 4.5005
R660 DVDD.n708 DVDD.n707 4.5005
R661 DVDD.n706 DVDD.n705 4.5005
R662 DVDD.n704 DVDD.n703 4.5005
R663 DVDD.n6334 DVDD.n3807 4.5005
R664 DVDD.n3807 DVDD.n3558 4.5005
R665 DVDD.n3807 DVDD.n3557 4.5005
R666 DVDD.n3805 DVDD.n3558 4.5005
R667 DVDD.n3805 DVDD.n3557 4.5005
R668 DVDD.n3572 DVDD.n3558 4.5005
R669 DVDD.n3572 DVDD.n3557 4.5005
R670 DVDD.n6334 DVDD.n3556 4.5005
R671 DVDD.n3558 DVDD.n3556 4.5005
R672 DVDD.n3557 DVDD.n3556 4.5005
R673 DVDD.n6335 DVDD.n3558 4.5005
R674 DVDD.n6335 DVDD.n3560 4.5005
R675 DVDD.n6335 DVDD.n3557 4.5005
R676 DVDD.n6335 DVDD.n6334 4.5005
R677 DVDD.n6334 DVDD.n3809 4.5005
R678 DVDD.n3809 DVDD.n3558 4.5005
R679 DVDD.n3809 DVDD.n3560 4.5005
R680 DVDD.n3809 DVDD.n3557 4.5005
R681 DVDD.n6334 DVDD.n3570 4.5005
R682 DVDD.n3570 DVDD.n3558 4.5005
R683 DVDD.n3570 DVDD.n3560 4.5005
R684 DVDD.n3570 DVDD.n3557 4.5005
R685 DVDD.n6334 DVDD.n3810 4.5005
R686 DVDD.n3810 DVDD.n3558 4.5005
R687 DVDD.n3810 DVDD.n3560 4.5005
R688 DVDD.n3810 DVDD.n3557 4.5005
R689 DVDD.n6334 DVDD.n3569 4.5005
R690 DVDD.n3569 DVDD.n3558 4.5005
R691 DVDD.n3569 DVDD.n3560 4.5005
R692 DVDD.n3569 DVDD.n3557 4.5005
R693 DVDD.n3811 DVDD.n3558 4.5005
R694 DVDD.n3811 DVDD.n3560 4.5005
R695 DVDD.n3811 DVDD.n3557 4.5005
R696 DVDD.n6334 DVDD.n3811 4.5005
R697 DVDD.n3568 DVDD.n3558 4.5005
R698 DVDD.n3568 DVDD.n3560 4.5005
R699 DVDD.n3568 DVDD.n3557 4.5005
R700 DVDD.n6334 DVDD.n3568 4.5005
R701 DVDD.n3812 DVDD.n3558 4.5005
R702 DVDD.n3812 DVDD.n3560 4.5005
R703 DVDD.n3812 DVDD.n3557 4.5005
R704 DVDD.n6334 DVDD.n3812 4.5005
R705 DVDD.n6334 DVDD.n3567 4.5005
R706 DVDD.n3567 DVDD.n3558 4.5005
R707 DVDD.n3567 DVDD.n3560 4.5005
R708 DVDD.n3567 DVDD.n3557 4.5005
R709 DVDD.n6334 DVDD.n3813 4.5005
R710 DVDD.n3813 DVDD.n3558 4.5005
R711 DVDD.n3813 DVDD.n3560 4.5005
R712 DVDD.n3813 DVDD.n3557 4.5005
R713 DVDD.n6334 DVDD.n3566 4.5005
R714 DVDD.n3566 DVDD.n3558 4.5005
R715 DVDD.n3566 DVDD.n3560 4.5005
R716 DVDD.n3566 DVDD.n3557 4.5005
R717 DVDD.n3814 DVDD.n3558 4.5005
R718 DVDD.n3814 DVDD.n3560 4.5005
R719 DVDD.n3814 DVDD.n3557 4.5005
R720 DVDD.n6334 DVDD.n3814 4.5005
R721 DVDD.n3565 DVDD.n3558 4.5005
R722 DVDD.n3565 DVDD.n3560 4.5005
R723 DVDD.n3565 DVDD.n3557 4.5005
R724 DVDD.n6334 DVDD.n3565 4.5005
R725 DVDD.n3815 DVDD.n3558 4.5005
R726 DVDD.n3815 DVDD.n3560 4.5005
R727 DVDD.n3815 DVDD.n3557 4.5005
R728 DVDD.n6334 DVDD.n3815 4.5005
R729 DVDD.n3564 DVDD.n3558 4.5005
R730 DVDD.n3564 DVDD.n3560 4.5005
R731 DVDD.n3564 DVDD.n3557 4.5005
R732 DVDD.n6334 DVDD.n3564 4.5005
R733 DVDD.n6334 DVDD.n3816 4.5005
R734 DVDD.n3816 DVDD.n3558 4.5005
R735 DVDD.n3816 DVDD.n3560 4.5005
R736 DVDD.n3816 DVDD.n3557 4.5005
R737 DVDD.n6334 DVDD.n3563 4.5005
R738 DVDD.n3563 DVDD.n3558 4.5005
R739 DVDD.n3563 DVDD.n3560 4.5005
R740 DVDD.n3563 DVDD.n3557 4.5005
R741 DVDD.n6334 DVDD.n3817 4.5005
R742 DVDD.n3817 DVDD.n3558 4.5005
R743 DVDD.n3817 DVDD.n3560 4.5005
R744 DVDD.n3817 DVDD.n3557 4.5005
R745 DVDD.n3562 DVDD.n3558 4.5005
R746 DVDD.n3562 DVDD.n3560 4.5005
R747 DVDD.n3562 DVDD.n3557 4.5005
R748 DVDD.n6334 DVDD.n3562 4.5005
R749 DVDD.n6333 DVDD.n3558 4.5005
R750 DVDD.n6333 DVDD.n3560 4.5005
R751 DVDD.n6333 DVDD.n3557 4.5005
R752 DVDD.n6334 DVDD.n6333 4.5005
R753 DVDD.n6327 DVDD.n3862 4.5005
R754 DVDD.n6327 DVDD.n3864 4.5005
R755 DVDD.n6324 DVDD.n3862 4.5005
R756 DVDD.n6324 DVDD.n3864 4.5005
R757 DVDD.n6321 DVDD.n3862 4.5005
R758 DVDD.n6321 DVDD.n3864 4.5005
R759 DVDD.n3874 DVDD.n3864 4.5005
R760 DVDD.n6301 DVDD.n3862 4.5005
R761 DVDD.n6299 DVDD.n3864 4.5005
R762 DVDD.n6299 DVDD.n3862 4.5005
R763 DVDD.n6648 DVDD.n3343 4.5005
R764 DVDD.n3357 DVDD.n3343 4.5005
R765 DVDD.n3362 DVDD.n3343 4.5005
R766 DVDD.n6650 DVDD.n3343 4.5005
R767 DVDD.n6648 DVDD.n3345 4.5005
R768 DVDD.n3357 DVDD.n3345 4.5005
R769 DVDD.n3362 DVDD.n3345 4.5005
R770 DVDD.n6650 DVDD.n3345 4.5005
R771 DVDD.n6648 DVDD.n3342 4.5005
R772 DVDD.n3357 DVDD.n3342 4.5005
R773 DVDD.n3362 DVDD.n3342 4.5005
R774 DVDD.n6650 DVDD.n3342 4.5005
R775 DVDD.n6648 DVDD.n3346 4.5005
R776 DVDD.n3357 DVDD.n3346 4.5005
R777 DVDD.n3362 DVDD.n3346 4.5005
R778 DVDD.n6650 DVDD.n3346 4.5005
R779 DVDD.n3357 DVDD.n3341 4.5005
R780 DVDD.n3362 DVDD.n3341 4.5005
R781 DVDD.n6650 DVDD.n3341 4.5005
R782 DVDD.n6648 DVDD.n3341 4.5005
R783 DVDD.n3357 DVDD.n3347 4.5005
R784 DVDD.n3362 DVDD.n3347 4.5005
R785 DVDD.n6650 DVDD.n3347 4.5005
R786 DVDD.n6648 DVDD.n3347 4.5005
R787 DVDD.n3357 DVDD.n3340 4.5005
R788 DVDD.n3362 DVDD.n3340 4.5005
R789 DVDD.n6650 DVDD.n3340 4.5005
R790 DVDD.n6648 DVDD.n3340 4.5005
R791 DVDD.n6648 DVDD.n3348 4.5005
R792 DVDD.n3357 DVDD.n3348 4.5005
R793 DVDD.n3362 DVDD.n3348 4.5005
R794 DVDD.n6650 DVDD.n3348 4.5005
R795 DVDD.n6648 DVDD.n3339 4.5005
R796 DVDD.n3357 DVDD.n3339 4.5005
R797 DVDD.n3362 DVDD.n3339 4.5005
R798 DVDD.n6650 DVDD.n3339 4.5005
R799 DVDD.n6648 DVDD.n3349 4.5005