* NGSPICE file created from gf180mcu_fd_io__in_c_flat.ext - technology: gf180mcuD

.subckt gf180mcu_fd_io__in_c_flat DVSS DVDD PAD Y PD VSS PU VDD
X0 GF_NI_IN_C_BASE_0.comp018green_out_predrv_1.ENB GF_NI_IN_C_BASE_0.comp018green_out_predrv_1.EN.t2 DVDD.t189 DVDD.t188 pfet_06v0 ad=2.64p pd=12.879999u as=1.56p ps=6.52u w=6u l=0.7u
X1 GF_NI_IN_C_BASE_0.pdrive_y_<1>.t1 GF_NI_IN_C_BASE_0.comp018green_out_predrv_0.SLB.t2 GF_NI_IN_C_BASE_0.pdrive_x_<1>.t1 DVSS.t122 nfet_06v0 ad=1.56p pd=6.52u as=2.64p ps=12.879999u w=6u l=0.7u
X2 GF_NI_IN_C_BASE_0.comp018green_inpath_cms_smt_0.comp018green_in_cms_smt_0.nmos_6p0_CDNS_4066195314540_0.S.t5 GF_NI_IN_C_BASE_0.comp018green_esd_cdm_0.IP_IN.t1 GF_NI_IN_C_BASE_0.comp018green_inpath_cms_smt_0.comp018green_in_drv_0.A.t2 DVSS.t14 nfet_06v0 ad=1.32p pd=6.88u as=0.78p ps=3.52u w=3u l=0.7u
X3 PU.t0 GF_NI_IN_C_BASE_0.comp018green_inpath_cms_smt_0.comp018green_in_logic_pupd_0.comp018green_std_xor2_0.pmos_6p0_CDNS_4066195314512_2.D.t1 GF_NI_IN_C_BASE_0.comp018green_inpath_cms_smt_0.comp018green_in_logic_pupd_0.comp018green_std_nand2_0.A.t1 VSS.t22 nfet_06v0 ad=0.66p pd=3.88u as=0.66p ps=3.88u w=1.5u l=0.7u
X4 VDD.t61 PU.t2 GF_NI_IN_C_BASE_0.comp018green_inpath_cms_smt_0.comp018green_in_logic_pupd_0.comp018green_std_xor2_0.pmos_6p0_CDNS_4066195314512_1.D.t2 VDD.t60 pfet_06v0 ad=1.32p pd=6.88u as=1.32p ps=6.88u w=3u l=0.7u
X5 VSS.t15 GF_NI_IN_C_BASE_0.comp018green_out_sigbuf_oe_0.OE.t6 GF_NI_IN_C_BASE_0.comp018green_out_sigbuf_oe_1.nmos_6p0_CDNS_4066195314511_0.S.t0 VSS.t14 nfet_06v0 ad=1.32p pd=6.88u as=0.78p ps=3.52u w=3u l=0.7u
X6 GF_NI_IN_C_BASE_0.comp018green_out_predrv_1.pmos_6p0_CDNS_4066195314515_0.D.t0 GF_NI_IN_C_BASE_0.comp018green_out_predrv_0.A.t1 DVSS.t4 DVSS.t3 nfet_06v0 ad=2.64p pd=12.879999u as=1.56p ps=6.52u w=6u l=0.7u
X7 GF_NI_IN_C_BASE_0.comp018green_inpath_cms_smt_0.comp018green_in_pupd_0.ppolyf_u_CDNS_4066195314532_0.PLUS PAD.t5 w_4468_53312# ppolyf_u r_width=2.5u r_length=2.8u
X8 DVSS.t40 GF_NI_IN_C_BASE_0.comp018green_inpath_cms_smt_0.comp018green_sigbuf_1.pmos_6p0_CDNS_4066195314512_0.D.t2 GF_NI_IN_C_BASE_0.comp018green_inpath_cms_smt_0.comp018green_sigbuf_1.Z.t0 DVSS.t39 nfet_06v0 ad=0.39p pd=2.02u as=0.39p ps=2.02u w=1.5u l=0.7u
X9 Y.t11 GF_NI_IN_C_BASE_0.comp018green_inpath_cms_smt_0.comp018green_in_drv_0.Z.t1 VSS.t28 VSS.t27 nfet_06v0 ad=0.39p pd=2.02u as=0.39p ps=2.02u w=1.5u l=0.7u
X10 GF_NI_IN_C_BASE_0.comp018green_out_sigbuf_oe_0.nmos_6p0_CDNS_4066195314511_1.S.t0 GF_NI_IN_C_BASE_0.comp018green_out_sigbuf_oe_0.OE.t7 VDD.t19 VDD.t18 pfet_06v0 ad=0.78p pd=3.52u as=1.32p ps=6.88u w=3u l=0.7u
X11 GF_NI_IN_C_BASE_0.comp018green_out_sigbuf_oe_1.nmos_6p0_CDNS_4066195314511_0.S.t1 GF_NI_IN_C_BASE_0.comp018green_out_sigbuf_oe_0.OE.t8 GF_NI_IN_C_BASE_0.comp018green_out_sigbuf_oe_1.nmos_6p0_CDNS_4066195314511_1.S.t1 VSS.t13 nfet_06v0 ad=0.78p pd=3.52u as=1.32p ps=6.88u w=3u l=0.7u
X12 VSS.t12 GF_NI_IN_C_BASE_0.comp018green_out_sigbuf_oe_0.OE.t9 GF_NI_IN_C_BASE_0.comp018green_out_sigbuf_a_0.nmos_6p0_CDNS_4066195314511_1.S.t0 VSS.t11 nfet_06v0 ad=1.32p pd=6.88u as=0.78p ps=3.52u w=3u l=0.7u
X13 DVSS GF_NI_IN_C_BASE_0.comp018green_out_predrv_3.pmos_6p0_CDNS_4066195314515_0.S.t0 DVDD.t82 DVDD.t81 pfet_06v0 ad=5.28p pd=24.88u as=3.12p ps=12.52u w=11.999999u l=0.7u
X14 GF_NI_IN_C_BASE_0.comp018green_inpath_cms_smt_0.comp018green_in_drv_0.nmos_6p0_CDNS_4066195314547_0.S.t2 GF_NI_IN_C_BASE_0.comp018green_inpath_cms_smt_0.comp018green_in_drv_0.A.t9 DVDD.t26 DVDD.t25 pfet_06v0 ad=0.88p pd=4.88u as=0.88p ps=4.88u w=2u l=0.7u
D0 GF_NI_IN_C_BASE_0.comp018green_inpath_cms_smt_0.comp018green_in_pupd_0.ppolyf_u_CDNS_4066195314532_0.PLUS DVDD diode_pd2nw_06v0 pj=42u area=20p
X15 GF_NI_IN_C_BASE_0.comp018green_out_predrv_2.pmos_6p0_CDNS_4066195314515_1.S GF_NI_IN_C_BASE_0.comp018green_out_predrv_0.A.t2 DVDD.t28 DVDD.t27 pfet_06v0 ad=5.28p pd=24.88u as=3.12p ps=12.52u w=11.999999u l=0.7u
X16 GF_NI_IN_C_BASE_0.ndrive_x_<2>.t1 GF_NI_IN_C_BASE_0.comp018green_out_predrv_2.pmos_6p0_CDNS_4066195314515_0.S.t0 DVSS.t213 DVSS.t212 nfet_06v0 ad=1.56p pd=6.52u as=2.64p ps=12.879999u w=6u l=0.7u
X17 GF_NI_IN_C_BASE_0.comp018green_out_sigbuf_a_0.nmos_6p0_CDNS_4066195314511_1.S.t1 GF_NI_IN_C_BASE_0.comp018green_out_sigbuf_oe_0.OE.t10 GF_NI_IN_C_BASE_0.comp018green_out_sigbuf_a_0.nmos_6p0_CDNS_4066195314511_1.D.t1 VSS.t10 nfet_06v0 ad=0.78p pd=3.52u as=1.32p ps=6.88u w=3u l=0.7u
X18 PAD GF_NI_IN_C_BASE_0.ndrive_x_<0>.t2 DVSS DVSS.t57 nfet_06v0_dss d_sab=3.78u s_sab=0.28u ad=0.14364n pd=83.56u as=10.639999p ps=76.56u w=38u l=1.15u
X19 DVDD.t122 GF_NI_IN_C_BASE_0.comp018green_out_sigbuf_oe_1.EN.t2 GF_NI_IN_C_BASE_0.comp018green_out_predrv_2.pmos_6p0_CDNS_4066195314515_2.D DVDD.t121 pfet_06v0 ad=3.12p pd=12.52u as=3.12p ps=12.52u w=11.999999u l=0.7u
X20 GF_NI_IN_C_BASE_0.comp018green_inpath_cms_smt_0.comp018green_sigbuf_0.pmos_6p0_CDNS_4066195314512_0.D.t0 GF_NI_IN_C_BASE_0.comp018green_inpath_cms_smt_0.comp018green_in_logic_pupd_0.PDB_OUT.t0 VDD.t38 VDD.t37 pfet_06v0 ad=1.32p pd=6.88u as=1.32p ps=6.88u w=3u l=0.7u
X21 GF_NI_IN_C_BASE_0.comp018green_inpath_cms_smt_0.comp018green_in_pupd_0.ppolyf_u_CDNS_4066195314533_0.PLUS.t0 GF_NI_IN_C_BASE_0.comp018green_inpath_cms_smt_0.comp018green_in_pupd_0.ppolyf_u_CDNS_4066195314533_0.MINUS.t0 DVDD.t31 ppolyf_u r_width=0.8u r_length=35.7u
X22 GF_NI_IN_C_BASE_0.comp018green_out_predrv_0.SLB.t1 GF_NI_IN_C_BASE_0.comp018green_out_predrv_0.SL.t2 DVDD.t113 DVDD.t112 pfet_06v0 ad=0.78p pd=3.52u as=0.78p ps=3.52u w=3u l=0.7u
X23 DVDD GF_NI_IN_C_BASE_0.pdrive_x_<2>.t3 PAD DVDD.t168 pfet_06v0_dss d_sab=0.28u s_sab=2.78u ad=11.199999p pd=80.56u as=0.1112n ps=85.56u w=40u l=0.7u
X24 GF_NI_IN_C_BASE_0.comp018green_inpath_cms_smt_0.comp018green_sigbuf_1.pmos_6p0_CDNS_4066195314512_0.D.t1 GF_NI_IN_C_BASE_0.ppolyf_u_CDNS_4066195314551_0.MINUS.t1 VSS.t26 VSS.t25 nfet_06v0 ad=0.66p pd=3.88u as=0.66p ps=3.88u w=1.5u l=0.7u
X25 DVSS.t97 GF_NI_IN_C_BASE_0.comp018green_out_predrv_0.pmos_6p0_CDNS_4066195314515_0.S.t0 DVSS.t97 DVSS.t96 nfet_06v0 ad=1.56p pd=6.52u as=0 ps=0 w=6u l=0.7u
X26 PAD GF_NI_IN_C_BASE_0.pdrive_x_<0>.t3 DVDD DVDD.t32 pfet_06v0_dss d_sab=2.78u s_sab=0.28u ad=0.1112n pd=85.56u as=11.199999p ps=80.56u w=40u l=0.7u
X27 DVSS.t78 GF_NI_IN_C_BASE_0.comp018green_inpath_cms_smt_0.comp018green_sigbuf_2.pmos_6p0_CDNS_4066195314512_0.D.t2 GF_NI_IN_C_BASE_0.comp018green_inpath_cms_smt_0.comp018green_in_pupd_0.PU_B.t0 DVSS.t77 nfet_06v0 ad=0.66p pd=3.88u as=0.39p ps=2.02u w=1.5u l=0.7u
X28 DVDD.t116 GF_NI_IN_C_BASE_0.comp018green_out_predrv_0.pmos_6p0_CDNS_4066195314515_0.D.t1 GF_NI_IN_C_BASE_0.pdrive_x_<0> DVDD.t115 pfet_06v0 ad=5.28p pd=24.88u as=3.12p ps=12.52u w=11.999999u l=0.7u
X29 GF_NI_IN_C_BASE_0.comp018green_inpath_cms_smt_0.comp018green_sigbuf_0.Z.t0 GF_NI_IN_C_BASE_0.comp018green_inpath_cms_smt_0.comp018green_sigbuf_0.pmos_6p0_CDNS_4066195314512_0.D.t2 DVSS.t151 DVSS.t150 nfet_06v0 ad=0.39p pd=2.02u as=0.66p ps=3.88u w=1.5u l=0.7u
X30 DVSS.t99 GF_NI_IN_C_BASE_0.comp018green_out_predrv_0.pmos_6p0_CDNS_4066195314515_0.S.t1 DVSS.t99 DVSS.t98 nfet_06v0 ad=1.56p pd=6.52u as=0 ps=0 w=6u l=0.7u
X31 DVDD.t93 GF_NI_IN_C_BASE_0.comp018green_out_predrv_2.pmos_6p0_CDNS_4066195314515_0.D.t1 GF_NI_IN_C_BASE_0.pdrive_y_<2>.t1 DVDD.t92 pfet_06v0 ad=3.12p pd=12.52u as=3.12p ps=12.52u w=11.999999u l=0.7u
X32 DVSS.t34 GF_NI_IN_C_BASE_0.comp018green_inpath_cms_smt_0.comp018green_sigbuf_1.Z.t2 GF_NI_IN_C_BASE_0.comp018green_inpath_cms_smt_0.comp018green_in_cms_smt_0.nmos_6p0_CDNS_4066195314537_0.D.t6 DVSS.t33 nfet_06v0 ad=0.832p pd=3.72u as=0.832p ps=3.72u w=3.2u l=0.7u
X33 GF_NI_IN_C_BASE_0.comp018green_inpath_cms_smt_0.comp018green_in_cms_smt_0.pmos_6p0_CDNS_4066195314534_0.D.t1 GF_NI_IN_C_BASE_0.comp018green_inpath_cms_smt_0.comp018green_sigbuf_3.Z.t1 DVDD.t183 DVDD.t182 pfet_06v0 ad=0.39p pd=2.02u as=0.66p ps=3.88u w=1.5u l=0.7u
X34 DVDD.t133 GF_NI_IN_C_BASE_0.comp018green_out_predrv_1.pmos_6p0_CDNS_4066195314515_0.S.t0 DVSS DVDD.t132 pfet_06v0 ad=3.12p pd=12.52u as=3.12p ps=12.52u w=11.999999u l=0.7u
X35 GF_NI_IN_C_BASE_0.comp018green_out_predrv_3.pmos_6p0_CDNS_4066195314515_2.D GF_NI_IN_C_BASE_0.comp018green_out_sigbuf_oe_1.EN.t3 DVDD.t70 DVDD.t69 pfet_06v0 ad=3.12p pd=12.52u as=3.12p ps=12.52u w=11.999999u l=0.7u
X36 GF_NI_IN_C_BASE_0.comp018green_inpath_cms_smt_0.comp018green_in_cms_smt_0.nmos_6p0_CDNS_4066195314537_0.D.t6 GF_NI_IN_C_BASE_0.comp018green_inpath_cms_smt_0.comp018green_sigbuf_1.Z.t3 DVSS.t36 DVSS.t35 nfet_06v0 ad=0.832p pd=3.72u as=0.832p ps=3.72u w=3.2u l=0.7u
X37 GF_NI_IN_C_BASE_0.comp018green_inpath_cms_smt_0.comp018green_in_drv_0.A.t8 GF_NI_IN_C_BASE_0.comp018green_inpath_cms_smt_0.comp018green_sigbuf_3.Z.t2 GF_NI_IN_C_BASE_0.comp018green_inpath_cms_smt_0.comp018green_in_cms_smt_0.pmos_6p0_CDNS_4066195314534_0.D.t2 DVSS.t214 nfet_06v0 ad=0.66p pd=3.88u as=0.66p ps=3.88u w=1.5u l=0.7u
X38 GF_NI_IN_C_BASE_0.comp018green_inpath_cms_smt_0.comp018green_in_pupd_0.ppolyf_u_CDNS_4066195314533_1.PLUS.t1 GF_NI_IN_C_BASE_0.comp018green_inpath_cms_smt_0.comp018green_in_pupd_0.ppolyf_u_CDNS_4066195314533_1.MINUS.t1 DVDD.t31 ppolyf_u r_width=0.8u r_length=35.7u
X39 DVDD.t127 GF_NI_IN_C_BASE_0.comp018green_out_predrv_3.pmos_6p0_CDNS_4066195314515_0.D.t2 GF_NI_IN_C_BASE_0.pdrive_y_<1> DVDD.t126 pfet_06v0 ad=5.28p pd=24.88u as=3.12p ps=12.52u w=11.999999u l=0.7u
X40 VDD.t17 GF_NI_IN_C_BASE_0.comp018green_out_sigbuf_oe_0.OE.t11 GF_NI_IN_C_BASE_0.comp018green_inpath_cms_smt_0.comp018green_sigbuf_3.pmos_6p0_CDNS_4066195314512_0.D.t0 VDD.t16 pfet_06v0 ad=1.32p pd=6.88u as=1.32p ps=6.88u w=3u l=0.7u
X41 DVSS.t133 GF_NI_IN_C_BASE_0.comp018green_inpath_cms_smt_0.comp018green_sigbuf_0.Z.t2 GF_NI_IN_C_BASE_0.comp018green_inpath_cms_smt_0.comp018green_in_pupd_0.PD.t0 DVSS.t132 nfet_06v0 ad=0.66p pd=3.88u as=0.39p ps=2.02u w=1.5u l=0.7u
X42 GF_NI_IN_C_BASE_0.comp018green_inpath_cms_smt_0.comp018green_in_cms_smt_0.nmos_6p0_CDNS_4066195314540_0.S.t6 GF_NI_IN_C_BASE_0.comp018green_inpath_cms_smt_0.comp018green_in_cms_smt_0.nmos_6p0_CDNS_4066195314530_0.D.t3 DVDD.t138 DVSS.t136 nfet_06v0 ad=0.572p pd=3.48u as=0.572p ps=3.48u w=1.3u l=0.7u
X43 DVSS GF_NI_IN_C_BASE_0.comp018green_out_predrv_0.SL.t3 GF_NI_IN_C_BASE_0.ndrive_x_<3>.t0 DVDD.t114 pfet_06v0 ad=3.12p pd=12.52u as=3.12p ps=12.52u w=11.999999u l=0.7u
D1 GF_NI_IN_C_BASE_0.ppolyf_u_CDNS_4066195314551_0.MINUS.t1 VDD.t34 diode_pd2nw_06v0 pj=4u area=1p
X44 DVSS GF_NI_IN_C_BASE_0.comp018green_out_predrv_0.SL.t4 GF_NI_IN_C_BASE_0.ndrive_x_<2> DVDD.t83 pfet_06v0 ad=5.28p pd=24.88u as=3.12p ps=12.52u w=11.999999u l=0.7u
X45 GF_NI_IN_C_BASE_0.ndrive_x_<3>.t1 DVSS.t177 DVSS DVDD.t204 pfet_06v0 ad=0.528p pd=3.28u as=0.528p ps=3.28u w=1.2u l=0.7u
X46 DVSS.t76 GF_NI_IN_C_BASE_0.comp018green_out_predrv_3.pmos_6p0_CDNS_4066195314515_0.S.t1 GF_NI_IN_C_BASE_0.ndrive_x_<1>.t2 DVSS.t75 nfet_06v0 ad=2.64p pd=12.879999u as=1.56p ps=6.52u w=6u l=0.7u
X47 DVSS.t12 GF_NI_IN_C_BASE_0.comp018green_out_predrv_0.A.t3 GF_NI_IN_C_BASE_0.comp018green_out_predrv_2.pmos_6p0_CDNS_4066195314515_0.D DVSS.t11 nfet_06v0 ad=1.56p pd=6.52u as=2.64p ps=12.879999u w=6u l=0.7u
X48 VDD.t15 GF_NI_IN_C_BASE_0.comp018green_out_sigbuf_oe_0.OE.t12 GF_NI_IN_C_BASE_0.comp018green_out_sigbuf_oe_1.nmos_6p0_CDNS_4066195314511_1.S.t0 VDD.t14 pfet_06v0 ad=1.32p pd=6.88u as=0.78p ps=3.52u w=3u l=0.7u
X49 GF_NI_IN_C_BASE_0.comp018green_inpath_cms_smt_0.comp018green_in_logic_pupd_0.comp018green_std_nand2_0.A.t0 GF_NI_IN_C_BASE_0.comp018green_inpath_cms_smt_0.comp018green_in_logic_pupd_0.comp018green_std_xor2_0.pmos_6p0_CDNS_4066195314512_2.D.t2 GF_NI_IN_C_BASE_0.comp018green_inpath_cms_smt_0.comp018green_in_logic_pupd_0.comp018green_std_xor2_0.pmos_6p0_CDNS_4066195314512_1.D.t0 VDD.t31 pfet_06v0 ad=1.32p pd=6.88u as=1.32p ps=6.88u w=3u l=0.7u
X50 GF_NI_IN_C_BASE_0.pdrive_y_<0>.t1 GF_NI_IN_C_BASE_0.comp018green_out_predrv_0.pmos_6p0_CDNS_4066195314515_0.D.t2 DVDD.t118 DVDD.t117 pfet_06v0 ad=3.12p pd=12.52u as=5.28p ps=24.88u w=11.999999u l=0.7u
X51 GF_NI_IN_C_BASE_0.comp018green_out_sigbuf_oe_1.nmos_6p0_CDNS_4066195314511_1.S.t0 GF_NI_IN_C_BASE_0.comp018green_out_sigbuf_oe_0.OE.t13 VDD.t13 VDD.t12 pfet_06v0 ad=0.78p pd=3.52u as=1.32p ps=6.88u w=3u l=0.7u
X52 VDD.t11 GF_NI_IN_C_BASE_0.comp018green_out_sigbuf_oe_0.OE.t14 GF_NI_IN_C_BASE_0.comp018green_out_sigbuf_a_0.nmos_6p0_CDNS_4066195314511_1.D.t0 VDD.t10 pfet_06v0 ad=1.32p pd=6.88u as=0.78p ps=3.52u w=3u l=0.7u
X53 GF_NI_IN_C_BASE_0.comp018green_out_sigbuf_a_0.nmos_6p0_CDNS_4066195314511_1.D.t0 GF_NI_IN_C_BASE_0.comp018green_out_sigbuf_oe_0.OE.t15 VDD.t9 VDD.t8 pfet_06v0 ad=0.78p pd=3.52u as=1.32p ps=6.88u w=3u l=0.7u
X54 GF_NI_IN_C_BASE_0.ppolyf_u_CDNS_4066195314551_0.MINUS.t0 VDD.t25 VDD.t24 ppolyf_u r_width=0.8u r_length=3.9u
X55 DVDD.t58 GF_NI_IN_C_BASE_0.comp018green_inpath_cms_smt_0.comp018green_sigbuf_1.Z.t4 GF_NI_IN_C_BASE_0.comp018green_inpath_cms_smt_0.comp018green_sigbuf_1.ZB.t1 DVDD.t57 pfet_06v0 ad=1.32p pd=6.88u as=0.78p ps=3.52u w=3u l=0.7u
X56 GF_NI_IN_C_BASE_0.comp018green_inpath_cms_smt_0.comp018green_sigbuf_1.ZB.t1 GF_NI_IN_C_BASE_0.comp018green_inpath_cms_smt_0.comp018green_sigbuf_1.Z.t5 DVDD.t60 DVDD.t59 pfet_06v0 ad=0.78p pd=3.52u as=0.78p ps=3.52u w=3u l=0.7u
X57 VSS.t42 PU.t3 GF_NI_IN_C_BASE_0.comp018green_inpath_cms_smt_0.comp018green_in_logic_pupd_0.comp018green_std_nand2_1.nmos_6p0_CDNS_4066195314511_0.D.t1 VSS.t41 nfet_06v0 ad=1.32p pd=6.88u as=0.78p ps=3.52u w=3u l=0.7u
X58 GF_NI_IN_C_BASE_0.pdrive_x_<0>.t2 DVDD.t205 GF_NI_IN_C_BASE_0.pdrive_y_<0>.t3 DVSS.t121 nfet_06v0 ad=0.528p pd=3.28u as=0.528p ps=3.28u w=1.2u l=0.7u
X59 PAD GF_NI_IN_C_BASE_0.pdrive_y_<0>.t4 DVDD DVDD.t123 pfet_06v0_dss d_sab=2.78u s_sab=0.28u ad=0.1112n pd=85.56u as=11.199999p ps=80.56u w=40u l=0.7u
X60 GF_NI_IN_C_BASE_0.comp018green_inpath_cms_smt_0.comp018green_in_cms_smt_0.pmos_6p0_CDNS_4066195314538_0.S.t4 GF_NI_IN_C_BASE_0.comp018green_inpath_cms_smt_0.comp018green_in_cms_smt_0.pmos_6p0_CDNS_4066195314534_0.D.t3 DVSS.t61 DVDD.t74 pfet_06v0 ad=0.836p pd=4.68u as=0.494p ps=2.42u w=1.9u l=0.7u
X61 GF_NI_IN_C_BASE_0.comp018green_sigbuf_1_0.pmos_6p0_CDNS_4066195314512_0.D.t0 GF_NI_IN_C_BASE_0.comp018green_out_sigbuf_oe_0.OE.t16 VDD.t7 VDD.t6 pfet_06v0 ad=1.32p pd=6.88u as=1.32p ps=6.88u w=3u l=0.7u
X62 DVSS.t159 GF_NI_IN_C_BASE_0.comp018green_out_predrv_1.ENB.t1 GF_NI_IN_C_BASE_0.comp018green_out_predrv_1.pmos_6p0_CDNS_4066195314515_0.D.t1 DVSS.t158 nfet_06v0 ad=1.56p pd=6.52u as=1.56p ps=6.52u w=6u l=0.7u
X63 GF_NI_IN_C_BASE_0.comp018green_out_sigbuf_oe_0.OE.t5 VSS.t19 VDD.t30 ppolyf_u r_width=0.8u r_length=3.9u
X64 DVSS DVSS PAD DVSS.t175 nfet_06v0_dss d_sab=0.28u s_sab=3.78u ad=10.639999p pd=76.56u as=0.14364n ps=83.56u w=38u l=1.15u
X65 DVSS.t60 GF_NI_IN_C_BASE_0.comp018green_inpath_cms_smt_0.comp018green_in_cms_smt_0.pmos_6p0_CDNS_4066195314534_0.D.t4 GF_NI_IN_C_BASE_0.comp018green_inpath_cms_smt_0.comp018green_in_cms_smt_0.pmos_6p0_CDNS_4066195314538_0.S.t3 DVDD.t73 pfet_06v0 ad=0.494p pd=2.42u as=0.836p ps=4.68u w=1.9u l=0.7u
X66 VDD.t59 PU.t4 GF_NI_IN_C_BASE_0.comp018green_inpath_cms_smt_0.comp018green_in_logic_pupd_0.PUB_OUT.t0 VDD.t58 pfet_06v0 ad=1.32p pd=6.88u as=0.78p ps=3.52u w=3u l=0.7u
X67 GF_NI_IN_C_BASE_0.pdrive_x_<0>.t1 GF_NI_IN_C_BASE_0.comp018green_out_predrv_0.SLB.t3 GF_NI_IN_C_BASE_0.pdrive_y_<0>.t2 DVSS.t121 nfet_06v0 ad=2.64p pd=12.879999u as=1.56p ps=6.52u w=6u l=0.7u
X68 DVDD.t14 GF_NI_IN_C_BASE_0.comp018green_out_predrv_1.pmos_6p0_CDNS_4066195314515_0.D.t2 GF_NI_IN_C_BASE_0.pdrive_x_<3>.t0 DVDD.t13 pfet_06v0 ad=3.12p pd=12.52u as=3.12p ps=12.52u w=11.999999u l=0.7u
X69 GF_NI_IN_C_BASE_0.pdrive_y_<1> GF_NI_IN_C_BASE_0.comp018green_out_predrv_3.pmos_6p0_CDNS_4066195314515_0.D.t3 DVDD.t129 DVDD.t128 pfet_06v0 ad=3.12p pd=12.52u as=3.12p ps=12.52u w=11.999999u l=0.7u
X70 GF_NI_IN_C_BASE_0.comp018green_inpath_cms_smt_0.comp018green_in_drv_0.nmos_6p0_CDNS_4066195314547_0.S.t1 GF_NI_IN_C_BASE_0.comp018green_inpath_cms_smt_0.comp018green_in_drv_0.A.t10 DVSS.t19 DVSS.t18 nfet_06v0 ad=1.76p pd=8.88u as=1.04p ps=4.52u w=4u l=0.7u
X71 GF_NI_IN_C_BASE_0.comp018green_inpath_cms_smt_0.comp018green_in_pupd_0.ppolyf_u_CDNS_4066195314533_0.PLUS.t1 GF_NI_IN_C_BASE_0.comp018green_inpath_cms_smt_0.comp018green_in_pupd_0.ppolyf_u_CDNS_4066195314533_1.MINUS.t0 DVDD.t31 ppolyf_u r_width=0.8u r_length=35.7u
X72 PAD GF_NI_IN_C_BASE_0.pdrive_x_<2>.t4 DVDD DVDD.t171 pfet_06v0_dss d_sab=2.78u s_sab=0.28u ad=0.1112n pd=85.56u as=11.199999p ps=80.56u w=40u l=0.7u
X73 GF_NI_IN_C_BASE_0.comp018green_out_predrv_1.pmos_6p0_CDNS_4066195314515_0.D GF_NI_IN_C_BASE_0.comp018green_out_predrv_1.ENB.t2 GF_NI_IN_C_BASE_0.comp018green_out_predrv_1.pmos_6p0_CDNS_4066195314515_2.D DVDD.t17 pfet_06v0 ad=5.28p pd=24.88u as=3.12p ps=12.52u w=11.999999u l=0.7u
X74 GF_NI_IN_C_BASE_0.pdrive_x_<3>.t0 GF_NI_IN_C_BASE_0.comp018green_out_predrv_1.pmos_6p0_CDNS_4066195314515_0.D.t3 DVDD.t12 DVDD.t11 pfet_06v0 ad=3.12p pd=12.52u as=5.28p ps=24.88u w=11.999999u l=0.7u
X75 GF_NI_IN_C_BASE_0.comp018green_inpath_cms_smt_0.comp018green_in_cms_smt_0.nmos_6p0_CDNS_4066195314540_0.S.t2 GF_NI_IN_C_BASE_0.comp018green_esd_cdm_0.IP_IN.t2 GF_NI_IN_C_BASE_0.comp018green_inpath_cms_smt_0.comp018green_in_cms_smt_0.nmos_6p0_CDNS_4066195314537_0.D.t3 DVSS.t13 nfet_06v0 ad=1.166p pd=6.18u as=0.689p ps=3.17u w=2.65u l=0.7u
X76 GF_NI_IN_C_BASE_0.comp018green_inpath_cms_smt_0.comp018green_in_drv_0.A.t2 GF_NI_IN_C_BASE_0.comp018green_esd_cdm_0.IP_IN.t3 GF_NI_IN_C_BASE_0.comp018green_inpath_cms_smt_0.comp018green_in_cms_smt_0.nmos_6p0_CDNS_4066195314540_0.S.t4 DVSS.t23 nfet_06v0 ad=0.78p pd=3.52u as=0.78p ps=3.52u w=3u l=0.7u
X77 GF_NI_IN_C_BASE_0.comp018green_inpath_cms_smt_0.comp018green_in_drv_0.A.t5 GF_NI_IN_C_BASE_0.comp018green_inpath_cms_smt_0.comp018green_sigbuf_1.Z.t6 DVDD.t66 DVDD.t65 pfet_06v0 ad=0.88p pd=4.88u as=0.52p ps=2.52u w=2u l=0.7u
X78 GF_NI_IN_C_BASE_0.ndrive_x_<3>.t2 GF_NI_IN_C_BASE_0.comp018green_out_predrv_1.pmos_6p0_CDNS_4066195314515_0.S.t1 DVSS.t185 DVSS.t184 nfet_06v0 ad=1.56p pd=6.52u as=1.56p ps=6.52u w=6u l=0.7u
X79 DVSS DVSS PAD DVSS.t172 nfet_06v0_dss d_sab=0.28u s_sab=3.78u ad=10.639999p pd=76.56u as=0.14364n ps=83.56u w=38u l=1.15u
X80 DVSS.t187 GF_NI_IN_C_BASE_0.comp018green_out_predrv_1.pmos_6p0_CDNS_4066195314515_0.S.t2 DVSS.t187 DVSS.t186 nfet_06v0 ad=1.56p pd=6.52u as=0 ps=0 w=6u l=0.7u
X81 DVSS.t8 GF_NI_IN_C_BASE_0.comp018green_out_predrv_1.pmos_6p0_CDNS_4066195314515_0.D.t4 GF_NI_IN_C_BASE_0.pdrive_y_<3>.t0 DVSS.t7 nfet_06v0 ad=1.56p pd=6.52u as=1.56p ps=6.52u w=6u l=0.7u
X82 DVSS.t30 GF_NI_IN_C_BASE_0.comp018green_inpath_cms_smt_0.comp018green_sigbuf_3.pmos_6p0_CDNS_4066195314512_0.D.t2 GF_NI_IN_C_BASE_0.comp018green_inpath_cms_smt_0.comp018green_sigbuf_3.Z.t0 DVSS.t29 nfet_06v0 ad=0.66p pd=3.88u as=0.39p ps=2.02u w=1.5u l=0.7u
X83 GF_NI_IN_C_BASE_0.comp018green_inpath_cms_smt_0.comp018green_sigbuf_3.Z GF_NI_IN_C_BASE_0.comp018green_inpath_cms_smt_0.comp018green_sigbuf_3.pmos_6p0_CDNS_4066195314512_0.D.t3 DVDD.t49 DVDD.t48 pfet_06v0 ad=0.78p pd=3.52u as=0.78p ps=3.52u w=3u l=0.7u
X84 GF_NI_IN_C_BASE_0.comp018green_inpath_cms_smt_0.comp018green_in_pupd_0.PD.t1 GF_NI_IN_C_BASE_0.comp018green_inpath_cms_smt_0.comp018green_sigbuf_0.Z.t3 DVDD.t135 DVDD.t134 pfet_06v0 ad=0.78p pd=3.52u as=0.78p ps=3.52u w=3u l=0.7u
D2 VSS.t51 GF_NI_IN_C_BASE_0.comp018green_out_sigbuf_oe_0.OE.t4 diode_pd2nw_06v0 pj=1.92u area=0.2304p
X85 PAD GF_NI_IN_C_BASE_0.pdrive_x_<3>.t4 DVDD DVDD.t38 pfet_06v0_dss d_sab=2.78u s_sab=0.28u ad=0.1112n pd=85.56u as=11.199999p ps=80.56u w=40u l=0.7u
X86 DVSS.t141 GF_NI_IN_C_BASE_0.comp018green_out_predrv_2.pmos_6p0_CDNS_4066195314515_0.S.t1 DVSS.t141 DVSS.t140 nfet_06v0 ad=1.56p pd=6.52u as=0 ps=0 w=6u l=0.7u
X87 DVDD.t185 GF_NI_IN_C_BASE_0.comp018green_inpath_cms_smt_0.comp018green_sigbuf_3.Z.t3 GF_NI_IN_C_BASE_0.comp018green_inpath_cms_smt_0.comp018green_sigbuf_3.ZB.t1 DVDD.t184 pfet_06v0 ad=0.78p pd=3.52u as=0.78p ps=3.52u w=3u l=0.7u
X88 DVDD.t150 GF_NI_IN_C_BASE_0.comp018green_inpath_cms_smt_0.comp018green_sigbuf_0.pmos_6p0_CDNS_4066195314512_0.D.t3 GF_NI_IN_C_BASE_0.comp018green_inpath_cms_smt_0.comp018green_sigbuf_0.Z.t1 DVDD.t149 pfet_06v0 ad=0.78p pd=3.52u as=0.78p ps=3.52u w=3u l=0.7u
X89 GF_NI_IN_C_BASE_0.comp018green_out_predrv_0.pmos_6p0_CDNS_4066195314515_2.D GF_NI_IN_C_BASE_0.comp018green_out_sigbuf_oe_0.ENB.t1 GF_NI_IN_C_BASE_0.comp018green_out_predrv_0.pmos_6p0_CDNS_4066195314515_0.D DVDD.t47 pfet_06v0 ad=3.12p pd=12.52u as=5.28p ps=24.88u w=11.999999u l=0.7u
X90 VDD.t40 GF_NI_IN_C_BASE_0.comp018green_inpath_cms_smt_0.comp018green_in_drv_0.Z.t2 Y.t5 VDD.t39 pfet_06v0 ad=0.91p pd=4.02u as=0.91p ps=4.02u w=3.5u l=0.7u
X91 Y.t4 GF_NI_IN_C_BASE_0.comp018green_inpath_cms_smt_0.comp018green_in_drv_0.Z.t3 VDD.t42 VDD.t41 pfet_06v0 ad=0.91p pd=4.02u as=1.54p ps=7.88u w=3.5u l=0.7u
X92 DVDD.t206 DVSS.t204 cap_nmos_06v0 c_width=5u c_length=1.5u
X93 GF_NI_IN_C_BASE_0.comp018green_inpath_cms_smt_0.comp018green_in_cms_smt_0.nmos_6p0_CDNS_4066195314530_0.D.t0 GF_NI_IN_C_BASE_0.comp018green_inpath_cms_smt_0.comp018green_in_cms_smt_0.nmos_6p0_CDNS_4066195314535_0.D.t2 GF_NI_IN_C_BASE_0.comp018green_inpath_cms_smt_0.comp018green_in_drv_0.A.t6 DVDD.t153 pfet_06v0 ad=0.88p pd=4.88u as=0.88p ps=4.88u w=2u l=0.7u
D3 DVSS.t0 GF_NI_IN_C_BASE_0.comp018green_inpath_cms_smt_0.comp018green_in_pupd_0.ppolyf_u_CDNS_4066195314532_0.PLUS diode_nd2ps_06v0 pj=42u area=20p
X94 DVSS.t28 GF_NI_IN_C_BASE_0.comp018green_sigbuf_1_0.pmos_6p0_CDNS_4066195314512_0.D.t2 GF_NI_IN_C_BASE_0.comp018green_out_predrv_0.SL.t0 DVSS.t27 nfet_06v0 ad=0.39p pd=2.02u as=0.39p ps=2.02u w=1.5u l=0.7u
X95 GF_NI_IN_C_BASE_0.pdrive_y_<1>.t0 GF_NI_IN_C_BASE_0.comp018green_out_predrv_3.pmos_6p0_CDNS_4066195314515_0.D.t4 DVSS.t124 DVSS.t123 nfet_06v0 ad=1.56p pd=6.52u as=2.64p ps=12.879999u w=6u l=0.7u
X96 GF_NI_IN_C_BASE_0.comp018green_inpath_cms_smt_0.comp018green_in_cms_smt_0.nmos_6p0_CDNS_4066195314537_0.D.t2 GF_NI_IN_C_BASE_0.comp018green_esd_cdm_0.IP_IN.t4 GF_NI_IN_C_BASE_0.comp018green_inpath_cms_smt_0.comp018green_in_cms_smt_0.nmos_6p0_CDNS_4066195314540_0.S.t1 DVSS.t22 nfet_06v0 ad=0.689p pd=3.17u as=1.166p ps=6.18u w=2.65u l=0.7u
X97 GF_NI_IN_C_BASE_0.comp018green_inpath_cms_smt_0.comp018green_in_pupd_0.ppolyf_u_CDNS_4066195314533_1.PLUS.t0 GF_NI_IN_C_BASE_0.comp018green_inpath_cms_smt_0.comp018green_in_pupd_0.ppolyf_u_CDNS_4066195314533_2.PLUS.t1 DVDD.t31 ppolyf_u r_width=0.8u r_length=35.7u
X98 VSS.t30 GF_NI_IN_C_BASE_0.comp018green_inpath_cms_smt_0.comp018green_in_drv_0.Z.t4 Y.t10 VSS.t29 nfet_06v0 ad=0.39p pd=2.02u as=0.39p ps=2.02u w=1.5u l=0.7u
X99 VSS.t40 PU.t5 GF_NI_IN_C_BASE_0.comp018green_inpath_cms_smt_0.comp018green_in_logic_pupd_0.comp018green_std_xor2_0.pmos_6p0_CDNS_4066195314512_1.D.t3 VSS.t39 nfet_06v0 ad=0.66p pd=3.88u as=0.66p ps=3.88u w=1.5u l=0.7u
X100 GF_NI_IN_C_BASE_0.comp018green_inpath_cms_smt_0.comp018green_in_pupd_0.pmos_6p0_CDNS_4066195314512_0.D.t2 GF_NI_IN_C_BASE_0.comp018green_inpath_cms_smt_0.comp018green_in_pupd_0.PU_B.t2 DVDD.t144 DVDD.t143 pfet_06v0 ad=1.32p pd=6.88u as=1.32p ps=6.88u w=3u l=0.7u
X101 DVSS.t153 GF_NI_IN_C_BASE_0.comp018green_out_sigbuf_a_0.nmos_6p0_CDNS_4066195314511_3.S.t2 GF_NI_IN_C_BASE_0.comp018green_out_predrv_0.A.t0 DVSS.t152 nfet_06v0 ad=0.78p pd=3.52u as=1.32p ps=6.88u w=3u l=0.7u
X102 GF_NI_IN_C_BASE_0.ndrive_x_<1>.t0 GF_NI_IN_C_BASE_0.comp018green_out_predrv_0.SL.t5 DVSS DVDD.t84 pfet_06v0 ad=3.12p pd=12.52u as=5.28p ps=24.88u w=11.999999u l=0.7u
X103 GF_NI_IN_C_BASE_0.comp018green_inpath_cms_smt_0.comp018green_sigbuf_3.ZB.t0 GF_NI_IN_C_BASE_0.comp018green_inpath_cms_smt_0.comp018green_sigbuf_3.Z.t4 DVSS.t216 DVSS.t215 nfet_06v0 ad=0.39p pd=2.02u as=0.66p ps=3.88u w=1.5u l=0.7u
X104 DVSS.t155 GF_NI_IN_C_BASE_0.comp018green_inpath_cms_smt_0.comp018green_in_cms_smt_0.nmos_6p0_CDNS_4066195314535_0.D.t3 GF_NI_IN_C_BASE_0.comp018green_inpath_cms_smt_0.comp018green_in_cms_smt_0.nmos_6p0_CDNS_4066195314530_0.D.t1 DVSS.t154 nfet_06v0 ad=0.66p pd=3.88u as=0.66p ps=3.88u w=1.5u l=0.7u
X105 DVSS.t112 GF_NI_IN_C_BASE_0.comp018green_out_predrv_0.pmos_6p0_CDNS_4066195314515_0.D.t3 GF_NI_IN_C_BASE_0.pdrive_y_<0>.t0 DVSS.t111 nfet_06v0 ad=2.64p pd=12.879999u as=1.56p ps=6.52u w=6u l=0.7u
X106 GF_NI_IN_C_BASE_0.comp018green_inpath_cms_smt_0.comp018green_in_pupd_0.PU_B.t0 GF_NI_IN_C_BASE_0.comp018green_inpath_cms_smt_0.comp018green_sigbuf_2.pmos_6p0_CDNS_4066195314512_0.D.t3 DVSS.t80 DVSS.t79 nfet_06v0 ad=0.39p pd=2.02u as=0.39p ps=2.02u w=1.5u l=0.7u
X107 Y.t9 GF_NI_IN_C_BASE_0.comp018green_inpath_cms_smt_0.comp018green_in_drv_0.Z.t5 VSS.t32 VSS.t31 nfet_06v0 ad=0.39p pd=2.02u as=0.66p ps=3.88u w=1.5u l=0.7u
X108 DVDD.t152 GF_NI_IN_C_BASE_0.comp018green_out_sigbuf_a_0.nmos_6p0_CDNS_4066195314511_3.S.t3 GF_NI_IN_C_BASE_0.comp018green_out_predrv_0.A DVDD.t151 pfet_06v0 ad=1.56p pd=6.52u as=2.64p ps=12.879999u w=6u l=0.7u
X109 GF_NI_IN_C_BASE_0.pdrive_y_<0>.t0 GF_NI_IN_C_BASE_0.comp018green_out_predrv_0.pmos_6p0_CDNS_4066195314515_0.D.t4 DVSS.t114 DVSS.t113 nfet_06v0 ad=1.56p pd=6.52u as=1.56p ps=6.52u w=6u l=0.7u
X110 DVDD.t146 GF_NI_IN_C_BASE_0.comp018green_inpath_cms_smt_0.comp018green_in_pupd_0.PU_B.t3 GF_NI_IN_C_BASE_0.comp018green_inpath_cms_smt_0.comp018green_sigbuf_2.ZB.t1 DVDD.t145 pfet_06v0 ad=0.78p pd=3.52u as=0.78p ps=3.52u w=3u l=0.7u
X111 GF_NI_IN_C_BASE_0.comp018green_out_predrv_0.nmos_6p0_CDNS_4066195314519_2.S GF_NI_IN_C_BASE_0.comp018green_out_sigbuf_oe_0.EN.t2 GF_NI_IN_C_BASE_0.comp018green_out_predrv_0.pmos_6p0_CDNS_4066195314515_0.D.t0 DVSS.t64 nfet_06v0 ad=2.64p pd=12.879999u as=1.56p ps=6.52u w=6u l=0.7u
X112 GF_NI_IN_C_BASE_0.pdrive_y_<2>.t1 GF_NI_IN_C_BASE_0.comp018green_out_predrv_2.pmos_6p0_CDNS_4066195314515_0.D.t2 DVDD.t95 DVDD.t94 pfet_06v0 ad=3.12p pd=12.52u as=5.28p ps=24.88u w=11.999999u l=0.7u
X113 GF_NI_IN_C_BASE_0.pdrive_y_<3>.t3 DVDD.t207 GF_NI_IN_C_BASE_0.pdrive_x_<3>.t3 DVSS.t119 nfet_06v0 ad=0.528p pd=3.28u as=0.528p ps=3.28u w=1.2u l=0.7u
X114 GF_NI_IN_C_BASE_0.comp018green_inpath_cms_smt_0.comp018green_sigbuf_2.ZB.t1 GF_NI_IN_C_BASE_0.comp018green_inpath_cms_smt_0.comp018green_in_pupd_0.PU_B.t4 DVDD.t148 DVDD.t147 pfet_06v0 ad=0.78p pd=3.52u as=1.32p ps=6.88u w=3u l=0.7u
X115 DVSS.t84 GF_NI_IN_C_BASE_0.comp018green_out_predrv_0.SL.t6 GF_NI_IN_C_BASE_0.comp018green_out_predrv_0.SLB.t0 DVSS.t83 nfet_06v0 ad=0.66p pd=3.88u as=0.39p ps=2.02u w=1.5u l=0.7u
X116 PAD GF_NI_IN_C_BASE_0.pdrive_y_<2>.t4 DVDD DVDD.t190 pfet_06v0_dss d_sab=2.78u s_sab=0.28u ad=0.1112n pd=85.56u as=11.199999p ps=80.56u w=40u l=0.7u
X117 GF_NI_IN_C_BASE_0.pdrive_x_<3>.t2 GF_NI_IN_C_BASE_0.comp018green_out_predrv_0.SLB.t4 GF_NI_IN_C_BASE_0.pdrive_y_<3>.t2 DVSS.t120 nfet_06v0 ad=2.64p pd=12.879999u as=1.56p ps=6.52u w=6u l=0.7u
X118 DVDD.t208 DVSS.t203 cap_nmos_06v0 c_width=5u c_length=1.5u
X119 DVDD.t209 DVSS.t202 cap_nmos_06v0 c_width=3u c_length=3u
X120 GF_NI_IN_C_BASE_0.comp018green_out_sigbuf_oe_2.nmos_6p0_CDNS_4066195314511_1.S.t1 GF_NI_IN_C_BASE_0.comp018green_out_sigbuf_oe_0.OE.t17 GF_NI_IN_C_BASE_0.comp018green_out_sigbuf_oe_2.nmos_6p0_CDNS_4066195314511_0.S.t0 VSS.t9 nfet_06v0 ad=1.32p pd=6.88u as=0.78p ps=3.52u w=3u l=0.7u
X121 PAD GF_NI_IN_C_BASE_0.ndrive_x_<2>.t2 DVSS DVSS.t137 nfet_06v0_dss d_sab=3.78u s_sab=0.28u ad=0.14364n pd=83.56u as=10.639999p ps=76.56u w=38u l=1.15u
X122 DVDD.t210 DVSS.t201 cap_nmos_06v0 c_width=5u c_length=1.5u
X123 GF_NI_IN_C_BASE_0.comp018green_inpath_cms_smt_0.comp018green_sigbuf_1.Z.t0 GF_NI_IN_C_BASE_0.comp018green_inpath_cms_smt_0.comp018green_sigbuf_1.pmos_6p0_CDNS_4066195314512_0.D.t3 DVSS.t42 DVSS.t41 nfet_06v0 ad=0.39p pd=2.02u as=0.66p ps=3.88u w=1.5u l=0.7u
X124 GF_NI_IN_C_BASE_0.comp018green_out_sigbuf_oe_2.nmos_6p0_CDNS_4066195314511_0.S.t1 VDD.t68 VSS.t1 VSS.t0 nfet_06v0 ad=0.78p pd=3.52u as=1.32p ps=6.88u w=3u l=0.7u
X125 GF_NI_IN_C_BASE_0.pdrive_y_<3>.t2 GF_NI_IN_C_BASE_0.comp018green_out_predrv_0.SLB.t5 GF_NI_IN_C_BASE_0.pdrive_x_<3>.t1 DVSS.t119 nfet_06v0 ad=1.56p pd=6.52u as=2.64p ps=12.879999u w=6u l=0.7u
X126 GF_NI_IN_C_BASE_0.comp018green_inpath_cms_smt_0.comp018green_in_cms_smt_0.nmos_6p0_CDNS_4066195314537_0.D.t5 GF_NI_IN_C_BASE_0.comp018green_inpath_cms_smt_0.comp018green_sigbuf_1.Z.t7 DVSS.t44 DVSS.t43 nfet_06v0 ad=1.408p pd=7.28u as=0.832p ps=3.72u w=3.2u l=0.7u
X127 GF_NI_IN_C_BASE_0.comp018green_inpath_cms_smt_0.comp018green_in_cms_smt_0.pmos_6p0_CDNS_4066195314538_0.S.t2 GF_NI_IN_C_BASE_0.comp018green_esd_cdm_0.IP_IN.t5 GF_NI_IN_C_BASE_0.comp018green_inpath_cms_smt_0.comp018green_in_drv_0.A.t3 DVDD.t29 pfet_06v0 ad=0.946p pd=5.18u as=0.559p ps=2.67u w=2.15u l=0.7u
X128 DVSS.t54 GF_NI_IN_C_BASE_0.comp018green_out_sigbuf_oe_1.EN.t4 GF_NI_IN_C_BASE_0.comp018green_out_sigbuf_oe_1.ENB.t0 DVSS.t53 nfet_06v0 ad=0.78p pd=3.52u as=1.32p ps=6.88u w=3u l=0.7u
D4 VSS.t52 GF_NI_IN_C_BASE_0.comp018green_out_sigbuf_oe_0.OE.t3 diode_pd2nw_06v0 pj=1.92u area=0.2304p
D5 VSS.t53 VDD.t29 diode_pd2nw_06v0 pj=1.92u area=0.2304p
X129 GF_NI_IN_C_BASE_0.ndrive_x_<2> GF_NI_IN_C_BASE_0.comp018green_out_predrv_0.SL.t7 DVSS DVDD.t85 pfet_06v0 ad=3.12p pd=12.52u as=3.12p ps=12.52u w=11.999999u l=0.7u
X130 VSS.t21 GF_NI_IN_C_BASE_0.comp018green_inpath_cms_smt_0.comp018green_in_logic_pupd_0.PUB_OUT.t2 GF_NI_IN_C_BASE_0.comp018green_inpath_cms_smt_0.comp018green_sigbuf_2.pmos_6p0_CDNS_4066195314512_0.D.t0 VSS.t20 nfet_06v0 ad=0.66p pd=3.88u as=0.66p ps=3.88u w=1.5u l=0.7u
X131 DVDD.t72 GF_NI_IN_C_BASE_0.comp018green_out_sigbuf_oe_1.EN.t5 GF_NI_IN_C_BASE_0.comp018green_out_sigbuf_oe_1.pmos_6p0_CDNS_4066195314513_0.S DVDD.t71 pfet_06v0 ad=1.56p pd=6.52u as=2.64p ps=12.879999u w=6u l=0.7u
X132 DVSS DVSS.t160 GF_NI_IN_C_BASE_0.ndrive_x_<2>.t0 DVDD.t201 pfet_06v0 ad=0.528p pd=3.28u as=0.528p ps=3.28u w=1.2u l=0.7u
X133 GF_NI_IN_C_BASE_0.comp018green_esd_cdm_0.IP_IN.t0 GF_NI_IN_C_BASE_0.comp018green_inpath_cms_smt_0.comp018green_in_pupd_0.ppolyf_u_CDNS_4066195314533_2.PLUS.t0 DVDD.t44 ppolyf_u r_width=0.8u r_length=22.999998u
X134 GF_NI_IN_C_BASE_0.pdrive_x_<0> GF_NI_IN_C_BASE_0.comp018green_out_predrv_0.pmos_6p0_CDNS_4066195314515_0.D.t5 DVDD.t120 DVDD.t119 pfet_06v0 ad=3.12p pd=12.52u as=3.12p ps=12.52u w=11.999999u l=0.7u
X135 DVDD.t211 DVSS.t200 cap_nmos_06v0 c_width=5u c_length=1.5u