* NGSPICE file created from gf180mcu_fd_io__bi_24t_flat.ext - technology: gf180mcuD

.subckt gf180mcu_fd_io__bi_24t_flat DVSS DVDD PAD PU Y IE SL A PD CS OE VSS VDD
X0 GF_NI_BI_24T_BASE_0.comp018green_out_predrv_1.ENB GF_NI_BI_24T_BASE_0.comp018green_out_predrv_1.EN.t2 DVDD.t163 DVDD.t162 pfet_06v0 ad=2.64p pd=12.879999u as=1.56p ps=6.52u w=6u l=0.7u
X1 GF_NI_BI_24T_BASE_0.comp018green_out_predrv_3.PDRIVE_Y.t2 GF_NI_BI_24T_BASE_0.comp018green_out_predrv_0.SLB.t2 GF_NI_BI_24T_BASE_0.comp018green_out_predrv_3.PDRIVE_X.t2 DVSS.t48 nfet_06v0 ad=1.56p pd=6.52u as=2.64p ps=12.879999u w=6u l=0.7u
X2 GF_NI_BI_24T_BASE_0.comp018green_inpath_cms_smt_0.comp018green_in_cms_smt_0.nmos_6p0_CDNS_4066195314540_0.S.t3 GF_NI_BI_24T_BASE_0.comp018green_esd_cdm_0.IP_IN.t1 GF_NI_BI_24T_BASE_0.comp018green_inpath_cms_smt_0.comp018green_in_drv_0.A.t6 DVSS.t0 nfet_06v0 ad=1.32p pd=6.88u as=0.78p ps=3.52u w=3u l=0.7u
X3 PU.t0 GF_NI_BI_24T_BASE_0.comp018green_inpath_cms_smt_0.comp018green_in_logic_pupd_0.comp018green_std_xor2_0.pmos_6p0_CDNS_4066195314512_2.D.t1 GF_NI_BI_24T_BASE_0.comp018green_inpath_cms_smt_0.comp018green_in_logic_pupd_0.comp018green_std_nand2_0.A.t1 VSS.t11 nfet_06v0 ad=0.66p pd=3.88u as=0.66p ps=3.88u w=1.5u l=0.7u
X4 VDD.t14 PU.t2 GF_NI_BI_24T_BASE_0.comp018green_inpath_cms_smt_0.comp018green_in_logic_pupd_0.comp018green_std_xor2_0.pmos_6p0_CDNS_4066195314512_1.D.t0 VDD.t13 pfet_06v0 ad=1.32p pd=6.88u as=1.32p ps=6.88u w=3u l=0.7u
X5 VSS.t27 GF_NI_BI_24T_BASE_0.ppolyf_u_CDNS_4066195314524_0.MINUS.t2 GF_NI_BI_24T_BASE_0.comp018green_out_sigbuf_oe_1.nmos_6p0_CDNS_4066195314511_0.S.t1 VSS.t26 nfet_06v0 ad=1.32p pd=6.88u as=0.78p ps=3.52u w=3u l=0.7u
X6 GF_NI_BI_24T_BASE_0.comp018green_out_predrv_1.pmos_6p0_CDNS_4066195314515_0.D.t1 GF_NI_BI_24T_BASE_0.comp018green_out_predrv_0.A.t1 DVSS.t227 DVSS.t226 nfet_06v0 ad=2.64p pd=12.879999u as=1.56p ps=6.52u w=6u l=0.7u
X7 GF_NI_BI_24T_BASE_0.comp018green_inpath_cms_smt_0.comp018green_in_pupd_0.ppolyf_u_CDNS_4066195314532_0.PLUS PAD.t4 w_4468_53312# ppolyf_u r_width=2.5u r_length=2.8u
X8 DVDD GF_NI_BI_24T_BASE_0.comp018green_out_predrv_1.PDRIVE_X.t4 PAD DVDD.t43 pfet_06v0_dss d_sab=0.28u s_sab=2.78u ad=16.8p pd=0.12056m as=0.1668n ps=0.12556m w=60u l=0.7u
X9 DVSS.t164 GF_NI_BI_24T_BASE_0.comp018green_inpath_cms_smt_0.comp018green_sigbuf_1.pmos_6p0_CDNS_4066195314512_0.D.t2 GF_NI_BI_24T_BASE_0.comp018green_inpath_cms_smt_0.comp018green_sigbuf_1.Z.t1 DVSS.t163 nfet_06v0 ad=0.39p pd=2.02u as=0.39p ps=2.02u w=1.5u l=0.7u
X10 Y.t5 GF_NI_BI_24T_BASE_0.comp018green_inpath_cms_smt_0.comp018green_in_drv_0.Z.t1 VSS.t15 VSS.t14 nfet_06v0 ad=0.39p pd=2.02u as=0.39p ps=2.02u w=1.5u l=0.7u
X11 GF_NI_BI_24T_BASE_0.comp018green_out_sigbuf_oe_0.nmos_6p0_CDNS_4066195314511_1.S.t1 GF_NI_BI_24T_BASE_0.comp018green_out_sigbuf_oe_0.PDRV.t2 VDD.t36 VDD.t35 pfet_06v0 ad=0.78p pd=3.52u as=1.32p ps=6.88u w=3u l=0.7u
X12 GF_NI_BI_24T_BASE_0.comp018green_out_sigbuf_oe_1.nmos_6p0_CDNS_4066195314511_0.S.t0 OE.t3 GF_NI_BI_24T_BASE_0.comp018green_out_sigbuf_oe_1.nmos_6p0_CDNS_4066195314511_1.S.t0 VSS.t8 nfet_06v0 ad=0.78p pd=3.52u as=1.32p ps=6.88u w=3u l=0.7u
X13 VSS.t10 OE.t4 GF_NI_BI_24T_BASE_0.comp018green_out_sigbuf_a_0.nmos_6p0_CDNS_4066195314511_1.S.t0 VSS.t9 nfet_06v0 ad=1.32p pd=6.88u as=0.78p ps=3.52u w=3u l=0.7u
X14 DVSS GF_NI_BI_24T_BASE_0.comp018green_out_predrv_3.pmos_6p0_CDNS_4066195314515_0.S.t0 DVDD.t101 DVDD.t100 pfet_06v0 ad=5.28p pd=24.88u as=3.12p ps=12.52u w=11.999999u l=0.7u
X15 GF_NI_BI_24T_BASE_0.comp018green_inpath_cms_smt_0.comp018green_in_drv_0.nmos_6p0_CDNS_4066195314547_0.S.t0 GF_NI_BI_24T_BASE_0.comp018green_inpath_cms_smt_0.comp018green_in_drv_0.A.t9 DVDD.t21 DVDD.t20 pfet_06v0 ad=0.88p pd=4.88u as=0.88p ps=4.88u w=2u l=0.7u
D0 GF_NI_BI_24T_BASE_0.comp018green_inpath_cms_smt_0.comp018green_in_pupd_0.ppolyf_u_CDNS_4066195314532_0.PLUS DVDD diode_pd2nw_06v0 pj=42u area=20p
X16 GF_NI_BI_24T_BASE_0.comp018green_out_predrv_2.pmos_6p0_CDNS_4066195314515_1.S GF_NI_BI_24T_BASE_0.comp018green_out_predrv_0.A.t2 DVDD.t198 DVDD.t197 pfet_06v0 ad=5.28p pd=24.88u as=3.12p ps=12.52u w=11.999999u l=0.7u
X17 GF_NI_BI_24T_BASE_0.comp018green_out_predrv_2.NDRIVE_X.t0 GF_NI_BI_24T_BASE_0.comp018green_out_predrv_2.pmos_6p0_CDNS_4066195314515_0.S.t0 DVSS.t77 DVSS.t76 nfet_06v0 ad=1.56p pd=6.52u as=2.64p ps=12.879999u w=6u l=0.7u
X18 GF_NI_BI_24T_BASE_0.comp018green_out_sigbuf_a_0.nmos_6p0_CDNS_4066195314511_1.S.t1 A.t0 GF_NI_BI_24T_BASE_0.comp018green_out_sigbuf_a_0.nmos_6p0_CDNS_4066195314511_1.D.t1 VSS.t49 nfet_06v0 ad=0.78p pd=3.52u as=1.32p ps=6.88u w=3u l=0.7u
X19 DVDD.t119 GF_NI_BI_24T_BASE_0.comp018green_out_sigbuf_oe_1.EN.t2 GF_NI_BI_24T_BASE_0.comp018green_out_predrv_2.pmos_6p0_CDNS_4066195314515_2.D DVDD.t118 pfet_06v0 ad=3.12p pd=12.52u as=3.12p ps=12.52u w=11.999999u l=0.7u
X20 GF_NI_BI_24T_BASE_0.comp018green_inpath_cms_smt_0.comp018green_sigbuf_0.pmos_6p0_CDNS_4066195314512_0.D.t1 GF_NI_BI_24T_BASE_0.comp018green_inpath_cms_smt_0.comp018green_in_logic_pupd_0.PDB_OUT.t1 VDD.t62 VDD.t61 pfet_06v0 ad=1.32p pd=6.88u as=1.32p ps=6.88u w=3u l=0.7u
X21 GF_NI_BI_24T_BASE_0.comp018green_inpath_cms_smt_0.comp018green_in_pupd_0.ppolyf_u_CDNS_4066195314533_0.PLUS.t1 GF_NI_BI_24T_BASE_0.comp018green_inpath_cms_smt_0.comp018green_in_pupd_0.ppolyf_u_CDNS_4066195314533_0.MINUS.t1 DVDD.t28 ppolyf_u r_width=0.8u r_length=35.7u
X22 GF_NI_BI_24T_BASE_0.comp018green_out_predrv_0.SLB.t0 GF_NI_BI_24T_BASE_0.comp018green_out_predrv_0.SL.t2 DVDD.t123 DVDD.t122 pfet_06v0 ad=0.78p pd=3.52u as=0.78p ps=3.52u w=3u l=0.7u
X23 GF_NI_BI_24T_BASE_0.comp018green_inpath_cms_smt_0.comp018green_sigbuf_1.pmos_6p0_CDNS_4066195314512_0.D.t0 IE.t0 VSS.t23 VSS.t22 nfet_06v0 ad=0.66p pd=3.88u as=0.66p ps=3.88u w=1.5u l=0.7u
X24 DVSS DVSS PAD DVSS.t196 nfet_06v0_dss d_sab=0.28u s_sab=3.78u ad=10.36p pd=74.56u as=0.13986n ps=81.56u w=36.999996u l=0.8u
X25 DVSS.t119 GF_NI_BI_24T_BASE_0.comp018green_out_predrv_0.pmos_6p0_CDNS_4066195314515_0.S.t0 DVSS.t119 DVSS.t118 nfet_06v0 ad=1.56p pd=6.52u as=0 ps=0 w=6u l=0.7u
X26 DVSS.t115 GF_NI_BI_24T_BASE_0.comp018green_inpath_cms_smt_0.comp018green_sigbuf_2.pmos_6p0_CDNS_4066195314512_0.D.t2 GF_NI_BI_24T_BASE_0.comp018green_inpath_cms_smt_0.comp018green_in_pupd_0.PU_B.t1 DVSS.t114 nfet_06v0 ad=0.66p pd=3.88u as=0.39p ps=2.02u w=1.5u l=0.7u
X27 DVDD.t52 GF_NI_BI_24T_BASE_0.comp018green_out_predrv_0.pmos_6p0_CDNS_4066195314515_0.D.t1 GF_NI_BI_24T_BASE_0.comp018green_out_predrv_0.PDRIVE_X.t3 DVDD.t51 pfet_06v0 ad=5.28p pd=24.88u as=3.12p ps=12.52u w=11.999999u l=0.7u
X28 GF_NI_BI_24T_BASE_0.comp018green_inpath_cms_smt_0.comp018green_sigbuf_0.Z.t1 GF_NI_BI_24T_BASE_0.comp018green_inpath_cms_smt_0.comp018green_sigbuf_0.pmos_6p0_CDNS_4066195314512_0.D.t2 DVSS.t133 DVSS.t132 nfet_06v0 ad=0.39p pd=2.02u as=0.66p ps=3.88u w=1.5u l=0.7u
X29 DVSS.t141 GF_NI_BI_24T_BASE_0.comp018green_out_predrv_0.pmos_6p0_CDNS_4066195314515_0.S.t1 DVSS.t141 DVSS.t140 nfet_06v0 ad=1.56p pd=6.52u as=0 ps=0 w=6u l=0.7u
X30 DVDD.t139 GF_NI_BI_24T_BASE_0.comp018green_out_predrv_2.pmos_6p0_CDNS_4066195314515_0.D.t1 GF_NI_BI_24T_BASE_0.comp018green_out_predrv_2.PDRIVE_Y.t2 DVDD.t138 pfet_06v0 ad=3.12p pd=12.52u as=3.12p ps=12.52u w=11.999999u l=0.7u
X31 DVSS.t153 GF_NI_BI_24T_BASE_0.comp018green_inpath_cms_smt_0.comp018green_sigbuf_1.Z.t2 GF_NI_BI_24T_BASE_0.comp018green_inpath_cms_smt_0.comp018green_in_cms_smt_0.nmos_6p0_CDNS_4066195314537_0.D.t6 DVSS.t152 nfet_06v0 ad=0.832p pd=3.72u as=0.832p ps=3.72u w=3.2u l=0.7u
X32 DVDD GF_NI_BI_24T_BASE_0.comp018green_out_predrv_2.PDRIVE_X.t4 PAD DVDD.t125 pfet_06v0_dss d_sab=0.28u s_sab=2.78u ad=16.8p pd=0.12056m as=0.1668n ps=0.12556m w=60u l=0.7u
X33 GF_NI_BI_24T_BASE_0.comp018green_inpath_cms_smt_0.comp018green_in_cms_smt_0.pmos_6p0_CDNS_4066195314534_0.D.t1 GF_NI_BI_24T_BASE_0.comp018green_inpath_cms_smt_0.comp018green_sigbuf_3.Z.t1 DVDD.t188 DVDD.t187 pfet_06v0 ad=0.39p pd=2.02u as=0.66p ps=3.88u w=1.5u l=0.7u
X34 DVDD.t58 GF_NI_BI_24T_BASE_0.comp018green_out_predrv_1.pmos_6p0_CDNS_4066195314515_0.S.t0 DVSS DVDD.t57 pfet_06v0 ad=3.12p pd=12.52u as=3.12p ps=12.52u w=11.999999u l=0.7u
X35 GF_NI_BI_24T_BASE_0.comp018green_out_predrv_3.pmos_6p0_CDNS_4066195314515_2.D GF_NI_BI_24T_BASE_0.comp018green_out_sigbuf_oe_1.EN.t3 DVDD.t97 DVDD.t96 pfet_06v0 ad=3.12p pd=12.52u as=3.12p ps=12.52u w=11.999999u l=0.7u
X36 GF_NI_BI_24T_BASE_0.comp018green_inpath_cms_smt_0.comp018green_in_cms_smt_0.nmos_6p0_CDNS_4066195314537_0.D.t6 GF_NI_BI_24T_BASE_0.comp018green_inpath_cms_smt_0.comp018green_sigbuf_1.Z.t3 DVSS.t155 DVSS.t154 nfet_06v0 ad=0.832p pd=3.72u as=0.832p ps=3.72u w=3.2u l=0.7u
X37 GF_NI_BI_24T_BASE_0.comp018green_inpath_cms_smt_0.comp018green_in_drv_0.A.t8 GF_NI_BI_24T_BASE_0.comp018green_inpath_cms_smt_0.comp018green_sigbuf_3.Z.t2 GF_NI_BI_24T_BASE_0.comp018green_inpath_cms_smt_0.comp018green_in_cms_smt_0.pmos_6p0_CDNS_4066195314534_0.D.t0 DVSS.t218 nfet_06v0 ad=0.66p pd=3.88u as=0.66p ps=3.88u w=1.5u l=0.7u
X38 GF_NI_BI_24T_BASE_0.comp018green_inpath_cms_smt_0.comp018green_in_pupd_0.ppolyf_u_CDNS_4066195314533_1.PLUS.t0 GF_NI_BI_24T_BASE_0.comp018green_inpath_cms_smt_0.comp018green_in_pupd_0.ppolyf_u_CDNS_4066195314533_1.MINUS.t0 DVDD.t28 ppolyf_u r_width=0.8u r_length=35.7u
X39 DVDD.t137 GF_NI_BI_24T_BASE_0.comp018green_out_predrv_3.pmos_6p0_CDNS_4066195314515_0.D.t2 GF_NI_BI_24T_BASE_0.comp018green_out_predrv_3.PDRIVE_Y DVDD.t136 pfet_06v0 ad=5.28p pd=24.88u as=3.12p ps=12.52u w=11.999999u l=0.7u
X40 VDD.t43 CS.t0 GF_NI_BI_24T_BASE_0.comp018green_inpath_cms_smt_0.comp018green_sigbuf_3.pmos_6p0_CDNS_4066195314512_0.D.t1 VDD.t42 pfet_06v0 ad=1.32p pd=6.88u as=1.32p ps=6.88u w=3u l=0.7u
X41 DVSS.t89 GF_NI_BI_24T_BASE_0.comp018green_inpath_cms_smt_0.comp018green_sigbuf_0.Z.t2 GF_NI_BI_24T_BASE_0.comp018green_inpath_cms_smt_0.comp018green_in_pupd_0.PD.t1 DVSS.t88 nfet_06v0 ad=0.66p pd=3.88u as=0.39p ps=2.02u w=1.5u l=0.7u
X42 GF_NI_BI_24T_BASE_0.comp018green_inpath_cms_smt_0.comp018green_in_cms_smt_0.nmos_6p0_CDNS_4066195314540_0.S.t0 GF_NI_BI_24T_BASE_0.comp018green_inpath_cms_smt_0.comp018green_in_cms_smt_0.nmos_6p0_CDNS_4066195314530_0.D.t3 DVDD.t104 DVSS.t104 nfet_06v0 ad=0.572p pd=3.48u as=0.572p ps=3.48u w=1.3u l=0.7u
X43 DVSS GF_NI_BI_24T_BASE_0.comp018green_out_predrv_0.SL.t3 GF_NI_BI_24T_BASE_0.comp018green_out_predrv_1.NDRIVE_X.t2 DVDD.t124 pfet_06v0 ad=3.12p pd=12.52u as=3.12p ps=12.52u w=11.999999u l=0.7u
D1 IE.t1 VDD.t18 diode_pd2nw_06v0 pj=4u area=1p
X44 DVSS GF_NI_BI_24T_BASE_0.comp018green_out_predrv_0.SL.t4 GF_NI_BI_24T_BASE_0.comp018green_out_predrv_2.NDRIVE_X DVDD.t105 pfet_06v0 ad=5.28p pd=24.88u as=3.12p ps=12.52u w=11.999999u l=0.7u
X45 GF_NI_BI_24T_BASE_0.comp018green_out_predrv_1.NDRIVE_X.t0 DVSS.t183 DVSS DVDD.t203 pfet_06v0 ad=0.528p pd=3.28u as=0.528p ps=3.28u w=1.2u l=0.7u
X46 DVSS.t100 GF_NI_BI_24T_BASE_0.comp018green_out_predrv_3.pmos_6p0_CDNS_4066195314515_0.S.t1 GF_NI_BI_24T_BASE_0.comp018green_out_predrv_3.NDRIVE_X.t2 DVSS.t99 nfet_06v0 ad=2.64p pd=12.879999u as=1.56p ps=6.52u w=6u l=0.7u
X47 PAD GF_NI_BI_24T_BASE_0.comp018green_out_predrv_0.PDRIVE_X.t4 DVDD DVDD.t71 pfet_06v0_dss d_sab=2.78u s_sab=0.28u ad=0.1668n pd=0.12556m as=16.8p ps=0.12056m w=60u l=0.7u
X48 DVSS.t225 GF_NI_BI_24T_BASE_0.comp018green_out_predrv_0.A.t3 GF_NI_BI_24T_BASE_0.comp018green_out_predrv_2.pmos_6p0_CDNS_4066195314515_0.D DVSS.t224 nfet_06v0 ad=1.56p pd=6.52u as=2.64p ps=12.879999u w=6u l=0.7u
X49 VDD.t27 GF_NI_BI_24T_BASE_0.ppolyf_u_CDNS_4066195314524_0.MINUS.t3 GF_NI_BI_24T_BASE_0.comp018green_out_sigbuf_oe_1.nmos_6p0_CDNS_4066195314511_1.S.t1 VDD.t26 pfet_06v0 ad=1.32p pd=6.88u as=0.78p ps=3.52u w=3u l=0.7u
X50 GF_NI_BI_24T_BASE_0.ppolyf_u_CDNS_4066195314524_0.MINUS.t1 VDD.t33 VDD.t32 ppolyf_u r_width=0.8u r_length=1.6u
X51 GF_NI_BI_24T_BASE_0.comp018green_inpath_cms_smt_0.comp018green_in_logic_pupd_0.comp018green_std_nand2_0.A.t0 GF_NI_BI_24T_BASE_0.comp018green_inpath_cms_smt_0.comp018green_in_logic_pupd_0.comp018green_std_xor2_0.pmos_6p0_CDNS_4066195314512_2.D.t2 GF_NI_BI_24T_BASE_0.comp018green_inpath_cms_smt_0.comp018green_in_logic_pupd_0.comp018green_std_xor2_0.pmos_6p0_CDNS_4066195314512_1.D.t2 VDD.t15 pfet_06v0 ad=1.32p pd=6.88u as=1.32p ps=6.88u w=3u l=0.7u
X52 GF_NI_BI_24T_BASE_0.comp018green_out_predrv_0.PDRIVE_Y.t2 GF_NI_BI_24T_BASE_0.comp018green_out_predrv_0.pmos_6p0_CDNS_4066195314515_0.D.t2 DVDD.t54 DVDD.t53 pfet_06v0 ad=3.12p pd=12.52u as=5.28p ps=24.88u w=11.999999u l=0.7u
X53 GF_NI_BI_24T_BASE_0.comp018green_out_sigbuf_oe_1.nmos_6p0_CDNS_4066195314511_1.S.t1 OE.t5 VDD.t1 VDD.t0 pfet_06v0 ad=0.78p pd=3.52u as=1.32p ps=6.88u w=3u l=0.7u
X54 VDD.t3 OE.t6 GF_NI_BI_24T_BASE_0.comp018green_out_sigbuf_a_0.nmos_6p0_CDNS_4066195314511_1.D.t0 VDD.t2 pfet_06v0 ad=1.32p pd=6.88u as=0.78p ps=3.52u w=3u l=0.7u
X55 GF_NI_BI_24T_BASE_0.comp018green_out_sigbuf_a_0.nmos_6p0_CDNS_4066195314511_1.D.t0 A.t1 VDD.t68 VDD.t67 pfet_06v0 ad=0.78p pd=3.52u as=1.32p ps=6.88u w=3u l=0.7u
X56 DVDD.t34 GF_NI_BI_24T_BASE_0.comp018green_inpath_cms_smt_0.comp018green_sigbuf_1.Z.t4 GF_NI_BI_24T_BASE_0.comp018green_inpath_cms_smt_0.comp018green_sigbuf_1.ZB.t0 DVDD.t33 pfet_06v0 ad=1.32p pd=6.88u as=0.78p ps=3.52u w=3u l=0.7u
X57 GF_NI_BI_24T_BASE_0.comp018green_inpath_cms_smt_0.comp018green_sigbuf_1.ZB.t0 GF_NI_BI_24T_BASE_0.comp018green_inpath_cms_smt_0.comp018green_sigbuf_1.Z.t5 DVDD.t36 DVDD.t35 pfet_06v0 ad=0.78p pd=3.52u as=0.78p ps=3.52u w=3u l=0.7u
X58 VSS.t7 PU.t3 GF_NI_BI_24T_BASE_0.comp018green_inpath_cms_smt_0.comp018green_in_logic_pupd_0.comp018green_std_nand2_1.nmos_6p0_CDNS_4066195314511_0.D.t0 VSS.t6 nfet_06v0 ad=1.32p pd=6.88u as=0.78p ps=3.52u w=3u l=0.7u
X59 GF_NI_BI_24T_BASE_0.comp018green_out_predrv_0.PDRIVE_X.t0 DVDD.t205 GF_NI_BI_24T_BASE_0.comp018green_out_predrv_0.PDRIVE_Y.t0 DVSS.t62 nfet_06v0 ad=0.528p pd=3.28u as=0.528p ps=3.28u w=1.2u l=0.7u
X60 GF_NI_BI_24T_BASE_0.comp018green_inpath_cms_smt_0.comp018green_in_cms_smt_0.pmos_6p0_CDNS_4066195314538_0.S.t1 GF_NI_BI_24T_BASE_0.comp018green_inpath_cms_smt_0.comp018green_in_cms_smt_0.pmos_6p0_CDNS_4066195314534_0.D.t3 DVSS.t216 DVDD.t178 pfet_06v0 ad=0.836p pd=4.68u as=0.494p ps=2.42u w=1.9u l=0.7u
X61 GF_NI_BI_24T_BASE_0.comp018green_sigbuf_1_0.pmos_6p0_CDNS_4066195314512_0.D.t1 SL.t0 VDD.t66 VDD.t65 pfet_06v0 ad=1.32p pd=6.88u as=1.32p ps=6.88u w=3u l=0.7u
X62 PAD GF_NI_BI_24T_BASE_0.comp018green_out_predrv_0.NDRIVE_X.t3 DVSS DVSS.t122 nfet_06v0_dss d_sab=3.78u s_sab=0.28u ad=0.13986n pd=81.56u as=10.36p ps=74.56u w=36.999996u l=0.8u
X63 DVSS.t126 GF_NI_BI_24T_BASE_0.comp018green_out_predrv_1.ENB.t1 GF_NI_BI_24T_BASE_0.comp018green_out_predrv_1.pmos_6p0_CDNS_4066195314515_0.D.t0 DVSS.t125 nfet_06v0 ad=1.56p pd=6.52u as=1.56p ps=6.52u w=6u l=0.7u
X64 DVSS.t217 GF_NI_BI_24T_BASE_0.comp018green_inpath_cms_smt_0.comp018green_in_cms_smt_0.pmos_6p0_CDNS_4066195314534_0.D.t4 GF_NI_BI_24T_BASE_0.comp018green_inpath_cms_smt_0.comp018green_in_cms_smt_0.pmos_6p0_CDNS_4066195314538_0.S.t0 DVDD.t179 pfet_06v0 ad=0.494p pd=2.42u as=0.836p ps=4.68u w=1.9u l=0.7u
X65 VDD.t12 PU.t4 GF_NI_BI_24T_BASE_0.comp018green_inpath_cms_smt_0.comp018green_in_logic_pupd_0.PUB_OUT.t0 VDD.t11 pfet_06v0 ad=1.32p pd=6.88u as=0.78p ps=3.52u w=3u l=0.7u
X66 GF_NI_BI_24T_BASE_0.comp018green_out_predrv_0.PDRIVE_X.t2 GF_NI_BI_24T_BASE_0.comp018green_out_predrv_0.SLB.t3 GF_NI_BI_24T_BASE_0.comp018green_out_predrv_0.PDRIVE_Y.t1 DVSS.t62 nfet_06v0 ad=2.64p pd=12.879999u as=1.56p ps=6.52u w=6u l=0.7u
X67 DVDD.t194 GF_NI_BI_24T_BASE_0.comp018green_out_predrv_1.pmos_6p0_CDNS_4066195314515_0.D.t2 GF_NI_BI_24T_BASE_0.comp018green_out_predrv_1.PDRIVE_X.t3 DVDD.t193 pfet_06v0 ad=3.12p pd=12.52u as=3.12p ps=12.52u w=11.999999u l=0.7u
X68 GF_NI_BI_24T_BASE_0.comp018green_out_predrv_3.PDRIVE_Y GF_NI_BI_24T_BASE_0.comp018green_out_predrv_3.pmos_6p0_CDNS_4066195314515_0.D.t3 DVDD.t93 DVDD.t92 pfet_06v0 ad=3.12p pd=12.52u as=3.12p ps=12.52u w=11.999999u l=0.7u
X69 GF_NI_BI_24T_BASE_0.comp018green_inpath_cms_smt_0.comp018green_in_drv_0.nmos_6p0_CDNS_4066195314547_0.S.t2 GF_NI_BI_24T_BASE_0.comp018green_inpath_cms_smt_0.comp018green_in_drv_0.A.t10 DVSS.t11 DVSS.t10 nfet_06v0 ad=1.76p pd=8.88u as=1.04p ps=4.52u w=4u l=0.7u
X70 GF_NI_BI_24T_BASE_0.comp018green_inpath_cms_smt_0.comp018green_in_pupd_0.ppolyf_u_CDNS_4066195314533_0.PLUS.t0 GF_NI_BI_24T_BASE_0.comp018green_inpath_cms_smt_0.comp018green_in_pupd_0.ppolyf_u_CDNS_4066195314533_1.MINUS.t1 DVDD.t28 ppolyf_u r_width=0.8u r_length=35.7u
X71 GF_NI_BI_24T_BASE_0.comp018green_out_predrv_1.pmos_6p0_CDNS_4066195314515_0.D GF_NI_BI_24T_BASE_0.comp018green_out_predrv_1.ENB.t2 GF_NI_BI_24T_BASE_0.comp018green_out_predrv_1.pmos_6p0_CDNS_4066195314515_2.D DVDD.t8 pfet_06v0 ad=5.28p pd=24.88u as=3.12p ps=12.52u w=11.999999u l=0.7u
X72 GF_NI_BI_24T_BASE_0.comp018green_out_predrv_1.PDRIVE_X.t3 GF_NI_BI_24T_BASE_0.comp018green_out_predrv_1.pmos_6p0_CDNS_4066195314515_0.D.t3 DVDD.t7 DVDD.t6 pfet_06v0 ad=3.12p pd=12.52u as=5.28p ps=24.88u w=11.999999u l=0.7u
X73 GF_NI_BI_24T_BASE_0.comp018green_inpath_cms_smt_0.comp018green_in_cms_smt_0.nmos_6p0_CDNS_4066195314540_0.S.t6 GF_NI_BI_24T_BASE_0.comp018green_esd_cdm_0.IP_IN.t2 GF_NI_BI_24T_BASE_0.comp018green_inpath_cms_smt_0.comp018green_in_cms_smt_0.nmos_6p0_CDNS_4066195314537_0.D.t3 DVSS.t16 nfet_06v0 ad=1.166p pd=6.18u as=0.689p ps=3.17u w=2.65u l=0.7u
X74 GF_NI_BI_24T_BASE_0.comp018green_inpath_cms_smt_0.comp018green_in_drv_0.A.t6 GF_NI_BI_24T_BASE_0.comp018green_esd_cdm_0.IP_IN.t3 GF_NI_BI_24T_BASE_0.comp018green_inpath_cms_smt_0.comp018green_in_cms_smt_0.nmos_6p0_CDNS_4066195314540_0.S.t2 DVSS.t13 nfet_06v0 ad=0.78p pd=3.52u as=0.78p ps=3.52u w=3u l=0.7u
X75 GF_NI_BI_24T_BASE_0.comp018green_inpath_cms_smt_0.comp018green_in_drv_0.A.t0 GF_NI_BI_24T_BASE_0.comp018green_inpath_cms_smt_0.comp018green_sigbuf_1.Z.t6 DVDD.t38 DVDD.t37 pfet_06v0 ad=0.88p pd=4.88u as=0.52p ps=2.52u w=2u l=0.7u
X76 GF_NI_BI_24T_BASE_0.comp018green_out_predrv_1.NDRIVE_X.t1 GF_NI_BI_24T_BASE_0.comp018green_out_predrv_1.pmos_6p0_CDNS_4066195314515_0.S.t1 DVSS.t39 DVSS.t38 nfet_06v0 ad=1.56p pd=6.52u as=1.56p ps=6.52u w=6u l=0.7u
X77 DVSS.t64 GF_NI_BI_24T_BASE_0.comp018green_out_predrv_1.pmos_6p0_CDNS_4066195314515_0.S.t2 DVSS.t64 DVSS.t63 nfet_06v0 ad=1.56p pd=6.52u as=0 ps=0 w=6u l=0.7u
X78 DVSS.t9 GF_NI_BI_24T_BASE_0.comp018green_out_predrv_1.pmos_6p0_CDNS_4066195314515_0.D.t4 GF_NI_BI_24T_BASE_0.comp018green_out_predrv_1.PDRIVE_Y.t3 DVSS.t8 nfet_06v0 ad=1.56p pd=6.52u as=1.56p ps=6.52u w=6u l=0.7u
X79 DVSS.t166 GF_NI_BI_24T_BASE_0.comp018green_inpath_cms_smt_0.comp018green_sigbuf_3.pmos_6p0_CDNS_4066195314512_0.D.t2 GF_NI_BI_24T_BASE_0.comp018green_inpath_cms_smt_0.comp018green_sigbuf_3.Z.t0 DVSS.t165 nfet_06v0 ad=0.66p pd=3.88u as=0.39p ps=2.02u w=1.5u l=0.7u
X80 DVSS DVSS PAD DVSS.t193 nfet_06v0_dss d_sab=0.28u s_sab=3.78u ad=10.36p pd=74.56u as=0.13986n ps=81.56u w=36.999996u l=0.8u
X81 GF_NI_BI_24T_BASE_0.comp018green_inpath_cms_smt_0.comp018green_sigbuf_3.Z GF_NI_BI_24T_BASE_0.comp018green_inpath_cms_smt_0.comp018green_sigbuf_3.pmos_6p0_CDNS_4066195314512_0.D.t3 DVDD.t154 DVDD.t153 pfet_06v0 ad=0.78p pd=3.52u as=0.78p ps=3.52u w=3u l=0.7u
X82 GF_NI_BI_24T_BASE_0.comp018green_inpath_cms_smt_0.comp018green_in_pupd_0.PD.t0 GF_NI_BI_24T_BASE_0.comp018green_inpath_cms_smt_0.comp018green_sigbuf_0.Z.t3 DVDD.t89 DVDD.t88 pfet_06v0 ad=0.78p pd=3.52u as=0.78p ps=3.52u w=3u l=0.7u
D2 VSS.t50 OE.t2 diode_pd2nw_06v0 pj=1.92u area=0.2304p
X83 PAD GF_NI_BI_24T_BASE_0.comp018green_out_predrv_0.PDRIVE_Y.t4 DVDD DVDD.t64 pfet_06v0_dss d_sab=2.78u s_sab=0.28u ad=0.1668n pd=0.12556m as=16.8p ps=0.12056m w=60u l=0.7u
X84 DVSS DVSS PAD DVSS.t190 nfet_06v0_dss d_sab=0.28u s_sab=3.78u ad=10.36p pd=74.56u as=0.13986n ps=81.56u w=36.999996u l=0.8u
X85 DVSS.t79 GF_NI_BI_24T_BASE_0.comp018green_out_predrv_2.pmos_6p0_CDNS_4066195314515_0.S.t1 DVSS.t79 DVSS.t78 nfet_06v0 ad=1.56p pd=6.52u as=0 ps=0 w=6u l=0.7u
X86 GF_NI_BI_24T_BASE_0.comp018green_out_sigbuf_oe_0.PDRV.t0 VDD.t9 VDD.t8 ppolyf_u r_width=0.8u r_length=1.6u
X87 DVDD.t190 GF_NI_BI_24T_BASE_0.comp018green_inpath_cms_smt_0.comp018green_sigbuf_3.Z.t3 GF_NI_BI_24T_BASE_0.comp018green_inpath_cms_smt_0.comp018green_sigbuf_3.ZB.t0 DVDD.t189 pfet_06v0 ad=0.78p pd=3.52u as=0.78p ps=3.52u w=3u l=0.7u
X88 DVDD.t132 GF_NI_BI_24T_BASE_0.comp018green_inpath_cms_smt_0.comp018green_sigbuf_0.pmos_6p0_CDNS_4066195314512_0.D.t3 GF_NI_BI_24T_BASE_0.comp018green_inpath_cms_smt_0.comp018green_sigbuf_0.Z.t0 DVDD.t131 pfet_06v0 ad=0.78p pd=3.52u as=0.78p ps=3.52u w=3u l=0.7u
X89 GF_NI_BI_24T_BASE_0.comp018green_out_predrv_0.pmos_6p0_CDNS_4066195314515_2.D GF_NI_BI_24T_BASE_0.comp018green_out_sigbuf_oe_0.ENB.t1 GF_NI_BI_24T_BASE_0.comp018green_out_predrv_0.pmos_6p0_CDNS_4066195314515_0.D DVDD.t81 pfet_06v0 ad=3.12p pd=12.52u as=5.28p ps=24.88u w=11.999999u l=0.7u
X90 VDD.t21 GF_NI_BI_24T_BASE_0.comp018green_inpath_cms_smt_0.comp018green_in_drv_0.Z.t2 Y.t11 VDD.t20 pfet_06v0 ad=0.91p pd=4.02u as=0.91p ps=4.02u w=3.5u l=0.7u
X91 Y.t10 GF_NI_BI_24T_BASE_0.comp018green_inpath_cms_smt_0.comp018green_in_drv_0.Z.t3 VDD.t23 VDD.t22 pfet_06v0 ad=0.91p pd=4.02u as=1.54p ps=7.88u w=3.5u l=0.7u
X92 PAD GF_NI_BI_24T_BASE_0.comp018green_out_predrv_2.PDRIVE_X.t5 DVDD DVDD.t128 pfet_06v0_dss d_sab=2.78u s_sab=0.28u ad=0.1668n pd=0.12556m as=16.8p ps=0.12056m w=60u l=0.7u
X93 DVDD.t206 DVSS.t61 cap_nmos_06v0 c_width=5u c_length=1.5u
X94 GF_NI_BI_24T_BASE_0.comp018green_inpath_cms_smt_0.comp018green_in_cms_smt_0.nmos_6p0_CDNS_4066195314530_0.D.t1 GF_NI_BI_24T_BASE_0.comp018green_inpath_cms_smt_0.comp018green_in_cms_smt_0.nmos_6p0_CDNS_4066195314535_0.D.t2 GF_NI_BI_24T_BASE_0.comp018green_inpath_cms_smt_0.comp018green_in_drv_0.A.t2 DVDD.t59 pfet_06v0 ad=0.88p pd=4.88u as=0.88p ps=4.88u w=2u l=0.7u
D3 DVSS.t12 GF_NI_BI_24T_BASE_0.comp018green_inpath_cms_smt_0.comp018green_in_pupd_0.ppolyf_u_CDNS_4066195314532_0.PLUS diode_nd2ps_06v0 pj=42u area=20p
X95 DVSS.t21 GF_NI_BI_24T_BASE_0.comp018green_sigbuf_1_0.pmos_6p0_CDNS_4066195314512_0.D.t2 GF_NI_BI_24T_BASE_0.comp018green_out_predrv_0.SL.t0 DVSS.t20 nfet_06v0 ad=0.39p pd=2.02u as=0.39p ps=2.02u w=1.5u l=0.7u
X96 GF_NI_BI_24T_BASE_0.comp018green_out_predrv_3.PDRIVE_Y.t1 GF_NI_BI_24T_BASE_0.comp018green_out_predrv_3.pmos_6p0_CDNS_4066195314515_0.D.t4 DVSS.t93 DVSS.t92 nfet_06v0 ad=1.56p pd=6.52u as=2.64p ps=12.879999u w=6u l=0.7u
X97 GF_NI_BI_24T_BASE_0.comp018green_inpath_cms_smt_0.comp018green_in_cms_smt_0.nmos_6p0_CDNS_4066195314537_0.D.t2 GF_NI_BI_24T_BASE_0.comp018green_esd_cdm_0.IP_IN.t4 GF_NI_BI_24T_BASE_0.comp018green_inpath_cms_smt_0.comp018green_in_cms_smt_0.nmos_6p0_CDNS_4066195314540_0.S.t5 DVSS.t14 nfet_06v0 ad=0.689p pd=3.17u as=1.166p ps=6.18u w=2.65u l=0.7u
X98 GF_NI_BI_24T_BASE_0.comp018green_inpath_cms_smt_0.comp018green_in_pupd_0.ppolyf_u_CDNS_4066195314533_1.PLUS.t1 GF_NI_BI_24T_BASE_0.comp018green_inpath_cms_smt_0.comp018green_in_pupd_0.ppolyf_u_CDNS_4066195314533_2.PLUS.t0 DVDD.t28 ppolyf_u r_width=0.8u r_length=35.7u
X99 VSS.t17 GF_NI_BI_24T_BASE_0.comp018green_inpath_cms_smt_0.comp018green_in_drv_0.Z.t4 Y.t4 VSS.t16 nfet_06v0 ad=0.39p pd=2.02u as=0.39p ps=2.02u w=1.5u l=0.7u
X100 VSS.t5 PU.t5 GF_NI_BI_24T_BASE_0.comp018green_inpath_cms_smt_0.comp018green_in_logic_pupd_0.comp018green_std_xor2_0.pmos_6p0_CDNS_4066195314512_1.D.t1 VSS.t4 nfet_06v0 ad=0.66p pd=3.88u as=0.66p ps=3.88u w=1.5u l=0.7u
X101 GF_NI_BI_24T_BASE_0.comp018green_inpath_cms_smt_0.comp018green_in_pupd_0.pmos_6p0_CDNS_4066195314512_0.D.t2 GF_NI_BI_24T_BASE_0.comp018green_inpath_cms_smt_0.comp018green_in_pupd_0.PU_B.t2 DVDD.t111 DVDD.t110 pfet_06v0 ad=1.32p pd=6.88u as=1.32p ps=6.88u w=3u l=0.7u
X102 DVSS.t121 GF_NI_BI_24T_BASE_0.comp018green_out_sigbuf_a_0.nmos_6p0_CDNS_4066195314511_3.S.t2 GF_NI_BI_24T_BASE_0.comp018green_out_predrv_0.A.t0 DVSS.t120 nfet_06v0 ad=0.78p pd=3.52u as=1.32p ps=6.88u w=3u l=0.7u
X103 PAD GF_NI_BI_24T_BASE_0.comp018green_out_predrv_3.NDRIVE_X.t3 DVSS DVSS.t158 nfet_06v0_dss d_sab=3.78u s_sab=0.28u ad=0.13986n pd=81.56u as=10.36p ps=74.56u w=36.999996u l=0.8u
X104 GF_NI_BI_24T_BASE_0.comp018green_out_predrv_3.NDRIVE_X.t1 GF_NI_BI_24T_BASE_0.comp018green_out_predrv_0.SL.t5 DVSS DVDD.t106 pfet_06v0 ad=3.12p pd=12.52u as=5.28p ps=24.88u w=11.999999u l=0.7u
X105 GF_NI_BI_24T_BASE_0.comp018green_inpath_cms_smt_0.comp018green_sigbuf_3.ZB.t1 GF_NI_BI_24T_BASE_0.comp018green_inpath_cms_smt_0.comp018green_sigbuf_3.Z.t4 DVSS.t220 DVSS.t219 nfet_06v0 ad=0.39p pd=2.02u as=0.66p ps=3.88u w=1.5u l=0.7u
X106 DVSS.t128 GF_NI_BI_24T_BASE_0.comp018green_inpath_cms_smt_0.comp018green_in_cms_smt_0.nmos_6p0_CDNS_4066195314535_0.D.t3 GF_NI_BI_24T_BASE_0.comp018green_inpath_cms_smt_0.comp018green_in_cms_smt_0.nmos_6p0_CDNS_4066195314530_0.D.t2 DVSS.t127 nfet_06v0 ad=0.66p pd=3.88u as=0.66p ps=3.88u w=1.5u l=0.7u
X107 DVSS.t213 GF_NI_BI_24T_BASE_0.comp018green_out_predrv_0.pmos_6p0_CDNS_4066195314515_0.D.t3 GF_NI_BI_24T_BASE_0.comp018green_out_predrv_0.PDRIVE_Y.t3 DVSS.t212 nfet_06v0 ad=2.64p pd=12.879999u as=1.56p ps=6.52u w=6u l=0.7u
X108 GF_NI_BI_24T_BASE_0.comp018green_inpath_cms_smt_0.comp018green_in_pupd_0.PU_B.t1 GF_NI_BI_24T_BASE_0.comp018green_inpath_cms_smt_0.comp018green_sigbuf_2.pmos_6p0_CDNS_4066195314512_0.D.t3 DVSS.t117 DVSS.t116 nfet_06v0 ad=0.39p pd=2.02u as=0.39p ps=2.02u w=1.5u l=0.7u
X109 Y.t3 GF_NI_BI_24T_BASE_0.comp018green_inpath_cms_smt_0.comp018green_in_drv_0.Z.t5 VSS.t19 VSS.t18 nfet_06v0 ad=0.39p pd=2.02u as=0.66p ps=3.88u w=1.5u l=0.7u
X110 DVDD.t173 GF_NI_BI_24T_BASE_0.comp018green_out_sigbuf_a_0.nmos_6p0_CDNS_4066195314511_3.S.t3 GF_NI_BI_24T_BASE_0.comp018green_out_predrv_0.A DVDD.t172 pfet_06v0 ad=1.56p pd=6.52u as=2.64p ps=12.879999u w=6u l=0.7u
X111 GF_NI_BI_24T_BASE_0.comp018green_out_predrv_0.PDRIVE_Y.t3 GF_NI_BI_24T_BASE_0.comp018green_out_predrv_0.pmos_6p0_CDNS_4066195314515_0.D.t4 DVSS.t215 DVSS.t214 nfet_06v0 ad=1.56p pd=6.52u as=1.56p ps=6.52u w=6u l=0.7u
X112 PAD GF_NI_BI_24T_BASE_0.comp018green_out_predrv_1.PDRIVE_X.t5 DVDD DVDD.t46 pfet_06v0_dss d_sab=2.78u s_sab=0.28u ad=0.1668n pd=0.12556m as=16.8p ps=0.12056m w=60u l=0.7u
X113 DVDD.t113 GF_NI_BI_24T_BASE_0.comp018green_inpath_cms_smt_0.comp018green_in_pupd_0.PU_B.t3 GF_NI_BI_24T_BASE_0.comp018green_inpath_cms_smt_0.comp018green_sigbuf_2.ZB.t0 DVDD.t112 pfet_06v0 ad=0.78p pd=3.52u as=0.78p ps=3.52u w=3u l=0.7u
X114 GF_NI_BI_24T_BASE_0.comp018green_out_predrv_0.nmos_6p0_CDNS_4066195314519_2.S GF_NI_BI_24T_BASE_0.comp018green_out_sigbuf_oe_0.EN.t2 GF_NI_BI_24T_BASE_0.comp018green_out_predrv_0.pmos_6p0_CDNS_4066195314515_0.D.t0 DVSS.t24 nfet_06v0 ad=2.64p pd=12.879999u as=1.56p ps=6.52u w=6u l=0.7u
X115 GF_NI_BI_24T_BASE_0.comp018green_out_predrv_2.PDRIVE_Y.t2 GF_NI_BI_24T_BASE_0.comp018green_out_predrv_2.pmos_6p0_CDNS_4066195314515_0.D.t2 DVDD.t141 DVDD.t140 pfet_06v0 ad=3.12p pd=12.52u as=5.28p ps=24.88u w=11.999999u l=0.7u
X116 GF_NI_BI_24T_BASE_0.comp018green_out_predrv_1.PDRIVE_Y.t0 DVDD.t207 GF_NI_BI_24T_BASE_0.comp018green_out_predrv_1.PDRIVE_X.t0 DVSS.t60 nfet_06v0 ad=0.528p pd=3.28u as=0.528p ps=3.28u w=1.2u l=0.7u
X117 GF_NI_BI_24T_BASE_0.comp018green_inpath_cms_smt_0.comp018green_sigbuf_2.ZB.t0 GF_NI_BI_24T_BASE_0.comp018green_inpath_cms_smt_0.comp018green_in_pupd_0.PU_B.t4 DVDD.t115 DVDD.t114 pfet_06v0 ad=0.78p pd=3.52u as=1.32p ps=6.88u w=3u l=0.7u
X118 DVSS.t108 GF_NI_BI_24T_BASE_0.comp018green_out_predrv_0.SL.t6 GF_NI_BI_24T_BASE_0.comp018green_out_predrv_0.SLB.t1 DVSS.t107 nfet_06v0 ad=0.66p pd=3.88u as=0.39p ps=2.02u w=1.5u l=0.7u
X119 GF_NI_BI_24T_BASE_0.comp018green_out_predrv_1.PDRIVE_X.t2 GF_NI_BI_24T_BASE_0.comp018green_out_predrv_0.SLB.t4 GF_NI_BI_24T_BASE_0.comp018green_out_predrv_1.PDRIVE_Y.t1 DVSS.t151 nfet_06v0 ad=2.64p pd=12.879999u as=1.56p ps=6.52u w=6u l=0.7u
X120 DVDD.t208 DVSS.t59 cap_nmos_06v0 c_width=5u c_length=1.5u
X121 DVDD.t209 DVSS.t58 cap_nmos_06v0 c_width=3u c_length=3u
X122 GF_NI_BI_24T_BASE_0.comp018green_out_sigbuf_oe_2.nmos_6p0_CDNS_4066195314511_1.S.t0 OE.t7 GF_NI_BI_24T_BASE_0.comp018green_out_sigbuf_oe_2.nmos_6p0_CDNS_4066195314511_0.S.t0 VSS.t2 nfet_06v0 ad=1.32p pd=6.88u as=0.78p ps=3.52u w=3u l=0.7u
X123 DVDD.t210 DVSS.t57 cap_nmos_06v0 c_width=5u c_length=1.5u
X124 GF_NI_BI_24T_BASE_0.comp018green_inpath_cms_smt_0.comp018green_sigbuf_1.Z.t1 GF_NI_BI_24T_BASE_0.comp018green_inpath_cms_smt_0.comp018green_sigbuf_1.pmos_6p0_CDNS_4066195314512_0.D.t3 DVSS.t157 DVSS.t156 nfet_06v0 ad=0.39p pd=2.02u as=0.66p ps=3.88u w=1.5u l=0.7u
X125 GF_NI_BI_24T_BASE_0.comp018green_out_sigbuf_oe_2.nmos_6p0_CDNS_4066195314511_0.S.t1 VDD.t69 VSS.t31 VSS.t30 nfet_06v0 ad=0.78p pd=3.52u as=1.32p ps=6.88u w=3u l=0.7u
X126 GF_NI_BI_24T_BASE_0.comp018green_out_predrv_1.PDRIVE_Y.t1 GF_NI_BI_24T_BASE_0.comp018green_out_predrv_0.SLB.t5 GF_NI_BI_24T_BASE_0.comp018green_out_predrv_1.PDRIVE_X.t1 DVSS.t60 nfet_06v0 ad=1.56p pd=6.52u as=2.64p ps=12.879999u w=6u l=0.7u
X127 GF_NI_BI_24T_BASE_0.comp018green_inpath_cms_smt_0.comp018green_in_cms_smt_0.nmos_6p0_CDNS_4066195314537_0.D.t5 GF_NI_BI_24T_BASE_0.comp018green_inpath_cms_smt_0.comp018green_sigbuf_1.Z.t7 DVSS.t28 DVSS.t27 nfet_06v0 ad=1.408p pd=7.28u as=0.832p ps=3.72u w=3.2u l=0.7u
X128 GF_NI_BI_24T_BASE_0.comp018green_inpath_cms_smt_0.comp018green_in_cms_smt_0.pmos_6p0_CDNS_4066195314538_0.S.t3 GF_NI_BI_24T_BASE_0.comp018green_esd_cdm_0.IP_IN.t5 GF_NI_BI_24T_BASE_0.comp018green_inpath_cms_smt_0.comp018green_in_drv_0.A.t7 DVDD.t25 pfet_06v0 ad=0.946p pd=5.18u as=0.559p ps=2.67u w=2.15u l=0.7u
X129 DVSS.t97 GF_NI_BI_24T_BASE_0.comp018green_out_sigbuf_oe_1.EN.t4 GF_NI_BI_24T_BASE_0.comp018green_out_sigbuf_oe_1.ENB.t0 DVSS.t96 nfet_06v0 ad=0.78p pd=3.52u as=1.32p ps=6.88u w=3u l=0.7u
D4 VSS.t51 OE.t1 diode_pd2nw_06v0 pj=1.92u area=0.2304p
D5 VSS.t52 VDD.t19 diode_pd2nw_06v0 pj=1.92u area=0.2304p
X130 DVSS DVSS PAD DVSS.t187 nfet_06v0_dss d_sab=0.28u s_sab=3.78u ad=10.36p pd=74.56u as=0.13986n ps=81.56u w=36.999996u l=0.8u
X131 GF_NI_BI_24T_BASE_0.comp018green_out_predrv_2.NDRIVE_X GF_NI_BI_24T_BASE_0.comp018green_out_predrv_0.SL.t7 DVSS DVDD.t107 pfet_06v0 ad=3.12p pd=12.52u as=3.12p ps=12.52u w=11.999999u l=0.7u