* NGSPICE file created from gf180mcu_fd_io__brk2_flat.ext - technology: gf180mcuD

.subckt gf180mcu_fd_io__brk2_flat VSS
R0 VSS.n1423 VSS.n622 2132.28
R1 VSS.n1420 VSS.n623 2131.04
R2 VSS.n1421 VSS.n622 2109.66
R3 VSS.n1422 VSS.n623 2108.36
R4 VSS.n235 VSS.n67 21.9053
R5 VSS.n1066 VSS.n1065 21.9053
R6 VSS.n236 VSS.n235 13.9053
R7 VSS.n237 VSS.n236 13.9053
R8 VSS.n238 VSS.n237 13.9053
R9 VSS.n239 VSS.n238 13.9053
R10 VSS.n240 VSS.n239 13.9053
R11 VSS.n241 VSS.n240 13.9053
R12 VSS.n242 VSS.n241 13.9053
R13 VSS.n243 VSS.n242 13.9053
R14 VSS.n244 VSS.n243 13.9053
R15 VSS.n245 VSS.n244 13.9053
R16 VSS.n246 VSS.n245 13.9053
R17 VSS.n247 VSS.n246 13.9053
R18 VSS.n248 VSS.n247 13.9053
R19 VSS.n249 VSS.n248 13.9053
R20 VSS.n250 VSS.n249 13.9053
R21 VSS.n251 VSS.n250 13.9053
R22 VSS.n252 VSS.n251 13.9053
R23 VSS.n253 VSS.n252 13.9053
R24 VSS.n254 VSS.n253 13.9053
R25 VSS.n255 VSS.n254 13.9053
R26 VSS.n256 VSS.n255 13.9053
R27 VSS.n257 VSS.n256 13.9053
R28 VSS.n258 VSS.n257 13.9053
R29 VSS.n259 VSS.n258 13.9053
R30 VSS.n260 VSS.n259 13.9053
R31 VSS.n261 VSS.n260 13.9053
R32 VSS.n262 VSS.n261 13.9053
R33 VSS.n263 VSS.n262 13.9053
R34 VSS.n263 VSS.n200 13.9053
R35 VSS.n278 VSS.n200 13.9053
R36 VSS.n279 VSS.n278 13.9053
R37 VSS.n280 VSS.n279 13.9053
R38 VSS.n280 VSS.n190 13.9053
R39 VSS.n295 VSS.n190 13.9053
R40 VSS.n455 VSS.n295 13.9053
R41 VSS.n455 VSS.n454 13.9053
R42 VSS.n454 VSS.n452 13.9053
R43 VSS.n452 VSS.n372 13.9053
R44 VSS.n372 VSS.n371 13.9053
R45 VSS.n371 VSS.n370 13.9053
R46 VSS.n370 VSS.n369 13.9053
R47 VSS.n369 VSS.n368 13.9053
R48 VSS.n368 VSS.n367 13.9053
R49 VSS.n367 VSS.n366 13.9053
R50 VSS.n366 VSS.n365 13.9053
R51 VSS.n365 VSS.n364 13.9053
R52 VSS.n364 VSS.n363 13.9053
R53 VSS.n363 VSS.n362 13.9053
R54 VSS.n362 VSS.n361 13.9053
R55 VSS.n361 VSS.n360 13.9053
R56 VSS.n360 VSS.n359 13.9053
R57 VSS.n359 VSS.n358 13.9053
R58 VSS.n358 VSS.n357 13.9053
R59 VSS.n357 VSS.n356 13.9053
R60 VSS.n356 VSS.n355 13.9053
R61 VSS.n355 VSS.n354 13.9053
R62 VSS.n354 VSS.n353 13.9053
R63 VSS.n353 VSS.n352 13.9053
R64 VSS.n352 VSS.n351 13.9053
R65 VSS.n351 VSS.n350 13.9053
R66 VSS.n350 VSS.n349 13.9053
R67 VSS.n349 VSS.n348 13.9053
R68 VSS.n348 VSS.n347 13.9053
R69 VSS.n347 VSS.n346 13.9053
R70 VSS.n346 VSS.n345 13.9053
R71 VSS.n345 VSS.n344 13.9053
R72 VSS.n344 VSS.n343 13.9053
R73 VSS.n343 VSS.n342 13.9053
R74 VSS.n342 VSS.n341 13.9053
R75 VSS.n341 VSS.n340 13.9053
R76 VSS.n340 VSS.n339 13.9053
R77 VSS.n339 VSS.n338 13.9053
R78 VSS.n338 VSS.n337 13.9053
R79 VSS.n337 VSS.n336 13.9053
R80 VSS.n336 VSS.n335 13.9053
R81 VSS.n335 VSS.n334 13.9053
R82 VSS.n334 VSS.n333 13.9053
R83 VSS.n333 VSS.n332 13.9053
R84 VSS.n332 VSS.n331 13.9053
R85 VSS.n331 VSS.n330 13.9053
R86 VSS.n330 VSS.n329 13.9053
R87 VSS.n329 VSS.n328 13.9053
R88 VSS.n328 VSS.n327 13.9053
R89 VSS.n327 VSS.n326 13.9053
R90 VSS.n326 VSS.n325 13.9053
R91 VSS.n325 VSS.n324 13.9053
R92 VSS.n324 VSS.n323 13.9053
R93 VSS.n323 VSS.n322 13.9053
R94 VSS.n322 VSS.n321 13.9053
R95 VSS.n321 VSS.n320 13.9053
R96 VSS.n320 VSS.n319 13.9053
R97 VSS.n319 VSS.n318 13.9053
R98 VSS.n318 VSS.n317 13.9053
R99 VSS.n317 VSS.n316 13.9053
R100 VSS.n316 VSS.n315 13.9053
R101 VSS.n315 VSS.n314 13.9053
R102 VSS.n314 VSS.n313 13.9053
R103 VSS.n313 VSS.n312 13.9053
R104 VSS.n312 VSS.n311 13.9053
R105 VSS.n311 VSS.n310 13.9053
R106 VSS.n310 VSS.n309 13.9053
R107 VSS.n309 VSS.n308 13.9053
R108 VSS.n308 VSS.n307 13.9053
R109 VSS.n307 VSS.n306 13.9053
R110 VSS.n306 VSS.n305 13.9053
R111 VSS.n305 VSS.n304 13.9053
R112 VSS.n304 VSS.n303 13.9053
R113 VSS.n303 VSS.n302 13.9053
R114 VSS.n302 VSS.n301 13.9053
R115 VSS.n301 VSS.n300 13.9053
R116 VSS.n300 VSS.n299 13.9053
R117 VSS.n299 VSS.n298 13.9053
R118 VSS.n298 VSS.n297 13.9053
R119 VSS.n297 VSS.n296 13.9053
R120 VSS.n296 VSS.n177 13.9053
R121 VSS.n510 VSS.n177 13.9053
R122 VSS.n510 VSS.n509 13.9053
R123 VSS.n509 VSS.n178 13.9053
R124 VSS.n492 VSS.n178 13.9053
R125 VSS.n493 VSS.n492 13.9053
R126 VSS.n494 VSS.n493 13.9053
R127 VSS.n494 VSS.n9 13.9053
R128 VSS.n1483 VSS.n9 13.9053
R129 VSS.n1483 VSS.n1482 13.9053
R130 VSS.n1482 VSS.n10 13.9053
R131 VSS.n1474 VSS.n10 13.9053
R132 VSS.n1474 VSS.n1473 13.9053
R133 VSS.n1473 VSS.n17 13.9053
R134 VSS.n845 VSS.n17 13.9053
R135 VSS.n846 VSS.n845 13.9053
R136 VSS.n847 VSS.n846 13.9053
R137 VSS.n848 VSS.n847 13.9053
R138 VSS.n849 VSS.n848 13.9053
R139 VSS.n850 VSS.n849 13.9053
R140 VSS.n851 VSS.n850 13.9053
R141 VSS.n852 VSS.n851 13.9053
R142 VSS.n853 VSS.n852 13.9053
R143 VSS.n854 VSS.n853 13.9053
R144 VSS.n855 VSS.n854 13.9053
R145 VSS.n856 VSS.n855 13.9053
R146 VSS.n857 VSS.n856 13.9053
R147 VSS.n858 VSS.n857 13.9053
R148 VSS.n859 VSS.n858 13.9053
R149 VSS.n860 VSS.n859 13.9053
R150 VSS.n861 VSS.n860 13.9053
R151 VSS.n862 VSS.n861 13.9053
R152 VSS.n863 VSS.n862 13.9053
R153 VSS.n864 VSS.n863 13.9053
R154 VSS.n865 VSS.n864 13.9053
R155 VSS.n866 VSS.n865 13.9053
R156 VSS.n867 VSS.n866 13.9053
R157 VSS.n868 VSS.n867 13.9053
R158 VSS.n869 VSS.n868 13.9053
R159 VSS.n870 VSS.n869 13.9053
R160 VSS.n871 VSS.n870 13.9053
R161 VSS.n872 VSS.n871 13.9053
R162 VSS.n873 VSS.n872 13.9053
R163 VSS.n874 VSS.n873 13.9053
R164 VSS.n875 VSS.n874 13.9053
R165 VSS.n876 VSS.n875 13.9053
R166 VSS.n877 VSS.n876 13.9053
R167 VSS.n878 VSS.n877 13.9053
R168 VSS.n879 VSS.n878 13.9053
R169 VSS.n880 VSS.n879 13.9053
R170 VSS.n881 VSS.n880 13.9053
R171 VSS.n882 VSS.n881 13.9053
R172 VSS.n883 VSS.n882 13.9053
R173 VSS.n884 VSS.n883 13.9053
R174 VSS.n885 VSS.n884 13.9053
R175 VSS.n886 VSS.n885 13.9053
R176 VSS.n887 VSS.n886 13.9053
R177 VSS.n888 VSS.n887 13.9053
R178 VSS.n889 VSS.n888 13.9053
R179 VSS.n890 VSS.n889 13.9053
R180 VSS.n891 VSS.n890 13.9053
R181 VSS.n892 VSS.n891 13.9053
R182 VSS.n893 VSS.n892 13.9053
R183 VSS.n894 VSS.n893 13.9053
R184 VSS.n895 VSS.n894 13.9053
R185 VSS.n896 VSS.n895 13.9053
R186 VSS.n897 VSS.n896 13.9053
R187 VSS.n898 VSS.n897 13.9053
R188 VSS.n899 VSS.n898 13.9053
R189 VSS.n900 VSS.n899 13.9053
R190 VSS.n901 VSS.n900 13.9053
R191 VSS.n902 VSS.n901 13.9053
R192 VSS.n903 VSS.n902 13.9053
R193 VSS.n904 VSS.n903 13.9053
R194 VSS.n905 VSS.n904 13.9053
R195 VSS.n906 VSS.n905 13.9053
R196 VSS.n907 VSS.n906 13.9053
R197 VSS.n908 VSS.n907 13.9053
R198 VSS.n909 VSS.n908 13.9053
R199 VSS.n910 VSS.n909 13.9053
R200 VSS.n911 VSS.n910 13.9053
R201 VSS.n912 VSS.n911 13.9053
R202 VSS.n913 VSS.n912 13.9053
R203 VSS.n914 VSS.n913 13.9053
R204 VSS.n915 VSS.n914 13.9053
R205 VSS.n916 VSS.n915 13.9053
R206 VSS.n917 VSS.n916 13.9053
R207 VSS.n918 VSS.n917 13.9053
R208 VSS.n919 VSS.n918 13.9053
R209 VSS.n920 VSS.n919 13.9053
R210 VSS.n921 VSS.n920 13.9053
R211 VSS.n922 VSS.n921 13.9053
R212 VSS.n923 VSS.n922 13.9053
R213 VSS.n924 VSS.n923 13.9053
R214 VSS.n925 VSS.n924 13.9053
R215 VSS.n926 VSS.n925 13.9053
R216 VSS.n927 VSS.n926 13.9053
R217 VSS.n928 VSS.n927 13.9053
R218 VSS.n929 VSS.n928 13.9053
R219 VSS.n930 VSS.n929 13.9053
R220 VSS.n931 VSS.n930 13.9053
R221 VSS.n932 VSS.n931 13.9053
R222 VSS.n933 VSS.n932 13.9053
R223 VSS.n934 VSS.n933 13.9053
R224 VSS.n935 VSS.n934 13.9053
R225 VSS.n936 VSS.n935 13.9053
R226 VSS.n937 VSS.n936 13.9053
R227 VSS.n938 VSS.n937 13.9053
R228 VSS.n939 VSS.n938 13.9053
R229 VSS.n940 VSS.n939 13.9053
R230 VSS.n941 VSS.n940 13.9053
R231 VSS.n942 VSS.n941 13.9053
R232 VSS.n943 VSS.n942 13.9053
R233 VSS.n944 VSS.n943 13.9053
R234 VSS.n945 VSS.n944 13.9053
R235 VSS.n946 VSS.n945 13.9053
R236 VSS.n947 VSS.n946 13.9053
R237 VSS.n948 VSS.n947 13.9053
R238 VSS.n949 VSS.n948 13.9053
R239 VSS.n950 VSS.n949 13.9053
R240 VSS.n951 VSS.n950 13.9053
R241 VSS.n952 VSS.n951 13.9053
R242 VSS.n953 VSS.n952 13.9053
R243 VSS.n954 VSS.n953 13.9053
R244 VSS.n955 VSS.n954 13.9053
R245 VSS.n956 VSS.n955 13.9053
R246 VSS.n957 VSS.n956 13.9053
R247 VSS.n958 VSS.n957 13.9053
R248 VSS.n959 VSS.n958 13.9053
R249 VSS.n960 VSS.n959 13.9053
R250 VSS.n961 VSS.n960 13.9053
R251 VSS.n962 VSS.n961 13.9053
R252 VSS.n963 VSS.n962 13.9053
R253 VSS.n964 VSS.n963 13.9053
R254 VSS.n965 VSS.n964 13.9053
R255 VSS.n966 VSS.n965 13.9053
R256 VSS.n967 VSS.n966 13.9053
R257 VSS.n968 VSS.n967 13.9053
R258 VSS.n969 VSS.n968 13.9053
R259 VSS.n970 VSS.n969 13.9053
R260 VSS.n971 VSS.n970 13.9053
R261 VSS.n972 VSS.n971 13.9053
R262 VSS.n973 VSS.n972 13.9053
R263 VSS.n974 VSS.n973 13.9053
R264 VSS.n975 VSS.n974 13.9053
R265 VSS.n976 VSS.n975 13.9053
R266 VSS.n977 VSS.n976 13.9053
R267 VSS.n978 VSS.n977 13.9053
R268 VSS.n979 VSS.n978 13.9053
R269 VSS.n980 VSS.n979 13.9053
R270 VSS.n981 VSS.n980 13.9053
R271 VSS.n982 VSS.n981 13.9053
R272 VSS.n983 VSS.n982 13.9053
R273 VSS.n984 VSS.n983 13.9053
R274 VSS.n985 VSS.n984 13.9053
R275 VSS.n986 VSS.n985 13.9053
R276 VSS.n987 VSS.n986 13.9053
R277 VSS.n988 VSS.n987 13.9053
R278 VSS.n989 VSS.n988 13.9053
R279 VSS.n990 VSS.n989 13.9053
R280 VSS.n991 VSS.n990 13.9053
R281 VSS.n992 VSS.n991 13.9053
R282 VSS.n993 VSS.n992 13.9053
R283 VSS.n994 VSS.n993 13.9053
R284 VSS.n995 VSS.n994 13.9053
R285 VSS.n996 VSS.n995 13.9053
R286 VSS.n997 VSS.n996 13.9053
R287 VSS.n998 VSS.n997 13.9053
R288 VSS.n999 VSS.n998 13.9053
R289 VSS.n1000 VSS.n999 13.9053
R290 VSS.n1001 VSS.n1000 13.9053
R291 VSS.n1002 VSS.n1001 13.9053
R292 VSS.n1003 VSS.n1002 13.9053
R293 VSS.n1004 VSS.n1003 13.9053
R294 VSS.n1005 VSS.n1004 13.9053
R295 VSS.n1006 VSS.n1005 13.9053
R296 VSS.n1007 VSS.n1006 13.9053
R297 VSS.n1008 VSS.n1007 13.9053
R298 VSS.n1009 VSS.n1008 13.9053
R299 VSS.n1010 VSS.n1009 13.9053
R300 VSS.n1011 VSS.n1010 13.9053
R301 VSS.n1012 VSS.n1011 13.9053
R302 VSS.n1013 VSS.n1012 13.9053
R303 VSS.n1014 VSS.n1013 13.9053
R304 VSS.n1015 VSS.n1014 13.9053
R305 VSS.n1016 VSS.n1015 13.9053
R306 VSS.n1017 VSS.n1016 13.9053
R307 VSS.n1018 VSS.n1017 13.9053
R308 VSS.n1019 VSS.n1018 13.9053
R309 VSS.n1020 VSS.n1019 13.9053
R310 VSS.n1021 VSS.n1020 13.9053
R311 VSS.n1022 VSS.n1021 13.9053
R312 VSS.n1023 VSS.n1022 13.9053
R313 VSS.n1024 VSS.n1023 13.9053
R314 VSS.n1025 VSS.n1024 13.9053
R315 VSS.n1026 VSS.n1025 13.9053
R316 VSS.n1027 VSS.n1026 13.9053
R317 VSS.n1028 VSS.n1027 13.9053
R318 VSS.n1029 VSS.n1028 13.9053
R319 VSS.n1030 VSS.n1029 13.9053
R320 VSS.n1031 VSS.n1030 13.9053
R321 VSS.n1032 VSS.n1031 13.9053
R322 VSS.n1033 VSS.n1032 13.9053
R323 VSS.n1034 VSS.n1033 13.9053
R324 VSS.n1035 VSS.n1034 13.9053
R325 VSS.n1036 VSS.n1035 13.9053
R326 VSS.n1037 VSS.n1036 13.9053
R327 VSS.n1038 VSS.n1037 13.9053
R328 VSS.n1039 VSS.n1038 13.9053
R329 VSS.n1040 VSS.n1039 13.9053
R330 VSS.n1041 VSS.n1040 13.9053
R331 VSS.n1042 VSS.n1041 13.9053
R332 VSS.n1043 VSS.n1042 13.9053
R333 VSS.n1044 VSS.n1043 13.9053
R334 VSS.n1045 VSS.n1044 13.9053
R335 VSS.n1046 VSS.n1045 13.9053
R336 VSS.n1047 VSS.n1046 13.9053
R337 VSS.n1048 VSS.n1047 13.9053
R338 VSS.n1049 VSS.n1048 13.9053
R339 VSS.n1050 VSS.n1049 13.9053
R340 VSS.n1051 VSS.n1050 13.9053
R341 VSS.n1052 VSS.n1051 13.9053
R342 VSS.n1053 VSS.n1052 13.9053
R343 VSS.n1054 VSS.n1053 13.9053
R344 VSS.n1055 VSS.n1054 13.9053
R345 VSS.n1056 VSS.n1055 13.9053
R346 VSS.n1057 VSS.n1056 13.9053
R347 VSS.n1058 VSS.n1057 13.9053
R348 VSS.n1059 VSS.n1058 13.9053
R349 VSS.n1060 VSS.n1059 13.9053
R350 VSS.n1061 VSS.n1060 13.9053
R351 VSS.n1062 VSS.n1061 13.9053
R352 VSS.n1063 VSS.n1062 13.9053
R353 VSS.n1064 VSS.n1063 13.9053
R354 VSS.n1065 VSS.n1064 13.9053
R355 VSS.n235 VSS.n68 8.0005
R356 VSS.n236 VSS.n69 8.0005
R357 VSS.n237 VSS.n70 8.0005
R358 VSS.n238 VSS.n71 8.0005
R359 VSS.n239 VSS.n72 8.0005
R360 VSS.n240 VSS.n73 8.0005
R361 VSS.n241 VSS.n74 8.0005
R362 VSS.n242 VSS.n75 8.0005
R363 VSS.n243 VSS.n76 8.0005
R364 VSS.n244 VSS.n77 8.0005
R365 VSS.n245 VSS.n78 8.0005
R366 VSS.n246 VSS.n79 8.0005
R367 VSS.n247 VSS.n80 8.0005
R368 VSS.n248 VSS.n81 8.0005
R369 VSS.n249 VSS.n82 8.0005
R370 VSS.n250 VSS.n83 8.0005
R371 VSS.n251 VSS.n84 8.0005
R372 VSS.n252 VSS.n85 8.0005
R373 VSS.n253 VSS.n86 8.0005
R374 VSS.n254 VSS.n87 8.0005
R375 VSS.n255 VSS.n88 8.0005
R376 VSS.n256 VSS.n89 8.0005
R377 VSS.n257 VSS.n90 8.0005
R378 VSS.n258 VSS.n91 8.0005
R379 VSS.n259 VSS.n92 8.0005
R380 VSS.n260 VSS.n93 8.0005
R381 VSS.n261 VSS.n94 8.0005
R382 VSS.n262 VSS.n95 8.0005
R383 VSS.n371 VSS.n99 8.0005
R384 VSS.n370 VSS.n100 8.0005
R385 VSS.n369 VSS.n101 8.0005
R386 VSS.n368 VSS.n102 8.0005
R387 VSS.n367 VSS.n103 8.0005
R388 VSS.n366 VSS.n104 8.0005
R389 VSS.n365 VSS.n105 8.0005
R390 VSS.n364 VSS.n106 8.0005
R391 VSS.n363 VSS.n107 8.0005
R392 VSS.n362 VSS.n108 8.0005
R393 VSS.n361 VSS.n109 8.0005
R394 VSS.n360 VSS.n110 8.0005
R395 VSS.n359 VSS.n111 8.0005
R396 VSS.n358 VSS.n112 8.0005
R397 VSS.n357 VSS.n113 8.0005
R398 VSS.n356 VSS.n114 8.0005
R399 VSS.n355 VSS.n115 8.0005
R400 VSS.n354 VSS.n116 8.0005
R401 VSS.n353 VSS.n117 8.0005
R402 VSS.n352 VSS.n118 8.0005
R403 VSS.n351 VSS.n119 8.0005
R404 VSS.n350 VSS.n120 8.0005
R405 VSS.n349 VSS.n121 8.0005
R406 VSS.n348 VSS.n122 8.0005
R407 VSS.n347 VSS.n123 8.0005
R408 VSS.n346 VSS.n124 8.0005
R409 VSS.n345 VSS.n125 8.0005
R410 VSS.n344 VSS.n126 8.0005
R411 VSS.n343 VSS.n127 8.0005
R412 VSS.n342 VSS.n128 8.0005
R413 VSS.n341 VSS.n129 8.0005
R414 VSS.n340 VSS.n130 8.0005
R415 VSS.n339 VSS.n131 8.0005
R416 VSS.n338 VSS.n132 8.0005
R417 VSS.n337 VSS.n133 8.0005
R418 VSS.n336 VSS.n134 8.0005
R419 VSS.n335 VSS.n135 8.0005
R420 VSS.n334 VSS.n136 8.0005
R421 VSS.n333 VSS.n137 8.0005
R422 VSS.n332 VSS.n138 8.0005
R423 VSS.n331 VSS.n139 8.0005
R424 VSS.n330 VSS.n140 8.0005
R425 VSS.n329 VSS.n141 8.0005
R426 VSS.n328 VSS.n142 8.0005
R427 VSS.n327 VSS.n143 8.0005
R428 VSS.n326 VSS.n144 8.0005
R429 VSS.n325 VSS.n145 8.0005
R430 VSS.n324 VSS.n146 8.0005
R431 VSS.n323 VSS.n147 8.0005
R432 VSS.n322 VSS.n148 8.0005
R433 VSS.n321 VSS.n149 8.0005
R434 VSS.n320 VSS.n150 8.0005
R435 VSS.n319 VSS.n151 8.0005
R436 VSS.n318 VSS.n152 8.0005
R437 VSS.n317 VSS.n153 8.0005
R438 VSS.n316 VSS.n154 8.0005
R439 VSS.n315 VSS.n155 8.0005
R440 VSS.n314 VSS.n156 8.0005
R441 VSS.n313 VSS.n157 8.0005
R442 VSS.n312 VSS.n158 8.0005
R443 VSS.n311 VSS.n159 8.0005
R444 VSS.n310 VSS.n160 8.0005
R445 VSS.n309 VSS.n161 8.0005
R446 VSS.n308 VSS.n162 8.0005
R447 VSS.n307 VSS.n163 8.0005
R448 VSS.n306 VSS.n164 8.0005
R449 VSS.n305 VSS.n165 8.0005
R450 VSS.n304 VSS.n166 8.0005
R451 VSS.n303 VSS.n167 8.0005
R452 VSS.n302 VSS.n168 8.0005
R453 VSS.n301 VSS.n169 8.0005
R454 VSS.n300 VSS.n170 8.0005
R455 VSS.n299 VSS.n171 8.0005
R456 VSS.n298 VSS.n172 8.0005
R457 VSS.n297 VSS.n173 8.0005
R458 VSS.n296 VSS.n174 8.0005
R459 VSS.n177 VSS.n175 8.0005
R460 VSS.n511 VSS.n510 8.0005
R461 VSS.n509 VSS.n508 8.0005
R462 VSS.n18 VSS.n17 8.0005
R463 VSS.n845 VSS.n19 8.0005
R464 VSS.n846 VSS.n20 8.0005
R465 VSS.n847 VSS.n21 8.0005
R466 VSS.n848 VSS.n22 8.0005
R467 VSS.n849 VSS.n23 8.0005
R468 VSS.n850 VSS.n24 8.0005
R469 VSS.n851 VSS.n25 8.0005
R470 VSS.n852 VSS.n26 8.0005
R471 VSS.n853 VSS.n27 8.0005
R472 VSS.n854 VSS.n28 8.0005
R473 VSS.n855 VSS.n29 8.0005
R474 VSS.n856 VSS.n30 8.0005
R475 VSS.n857 VSS.n31 8.0005
R476 VSS.n858 VSS.n32 8.0005
R477 VSS.n859 VSS.n33 8.0005
R478 VSS.n860 VSS.n34 8.0005
R479 VSS.n861 VSS.n35 8.0005
R480 VSS.n862 VSS.n36 8.0005
R481 VSS.n863 VSS.n37 8.0005
R482 VSS.n864 VSS.n38 8.0005
R483 VSS.n865 VSS.n39 8.0005
R484 VSS.n866 VSS.n40 8.0005
R485 VSS.n867 VSS.n41 8.0005
R486 VSS.n868 VSS.n42 8.0005
R487 VSS.n869 VSS.n43 8.0005
R488 VSS.n870 VSS.n44 8.0005
R489 VSS.n871 VSS.n45 8.0005
R490 VSS.n872 VSS.n46 8.0005
R491 VSS.n873 VSS.n47 8.0005
R492 VSS.n874 VSS.n48 8.0005
R493 VSS.n875 VSS.n49 8.0005
R494 VSS.n876 VSS.n50 8.0005
R495 VSS.n877 VSS.n51 8.0005
R496 VSS.n878 VSS.n52 8.0005
R497 VSS.n879 VSS.n53 8.0005
R498 VSS.n880 VSS.n54 8.0005
R499 VSS.n881 VSS.n55 8.0005
R500 VSS.n882 VSS.n56 8.0005
R501 VSS.n883 VSS.n57 8.0005
R502 VSS.n884 VSS.n58 8.0005
R503 VSS.n885 VSS.n59 8.0005
R504 VSS.n886 VSS.n60 8.0005
R505 VSS.n887 VSS.n61 8.0005
R506 VSS.n888 VSS.n62 8.0005
R507 VSS.n889 VSS.n63 8.0005
R508 VSS.n890 VSS.n64 8.0005
R509 VSS.n891 VSS.n670 8.0005
R510 VSS.n892 VSS.n671 8.0005
R511 VSS.n893 VSS.n672 8.0005
R512 VSS.n894 VSS.n673 8.0005
R513 VSS.n895 VSS.n674 8.0005
R514 VSS.n896 VSS.n675 8.0005
R515 VSS.n897 VSS.n676 8.0005
R516 VSS.n898 VSS.n677 8.0005
R517 VSS.n899 VSS.n678 8.0005
R518 VSS.n900 VSS.n679 8.0005
R519 VSS.n901 VSS.n680 8.0005
R520 VSS.n902 VSS.n681 8.0005
R521 VSS.n903 VSS.n682 8.0005
R522 VSS.n904 VSS.n683 8.0005
R523 VSS.n905 VSS.n684 8.0005
R524 VSS.n906 VSS.n685 8.0005
R525 VSS.n907 VSS.n686 8.0005
R526 VSS.n908 VSS.n687 8.0005
R527 VSS.n909 VSS.n688 8.0005
R528 VSS.n910 VSS.n689 8.0005
R529 VSS.n911 VSS.n690 8.0005
R530 VSS.n912 VSS.n691 8.0005
R531 VSS.n913 VSS.n692 8.0005
R532 VSS.n914 VSS.n693 8.0005
R533 VSS.n915 VSS.n694 8.0005
R534 VSS.n916 VSS.n695 8.0005
R535 VSS.n917 VSS.n696 8.0005
R536 VSS.n918 VSS.n697 8.0005
R537 VSS.n919 VSS.n698 8.0005
R538 VSS.n920 VSS.n699 8.0005
R539 VSS.n921 VSS.n700 8.0005
R540 VSS.n922 VSS.n701 8.0005
R541 VSS.n923 VSS.n702 8.0005
R542 VSS.n924 VSS.n703 8.0005
R543 VSS.n925 VSS.n704 8.0005
R544 VSS.n926 VSS.n705 8.0005
R545 VSS.n927 VSS.n706 8.0005
R546 VSS.n928 VSS.n707 8.0005
R547 VSS.n929 VSS.n708 8.0005
R548 VSS.n930 VSS.n709 8.0005
R549 VSS.n931 VSS.n710 8.0005
R550 VSS.n932 VSS.n711 8.0005
R551 VSS.n933 VSS.n712 8.0005
R552 VSS.n934 VSS.n713 8.0005
R553 VSS.n935 VSS.n714 8.0005
R554 VSS.n936 VSS.n715 8.0005
R555 VSS.n937 VSS.n716 8.0005
R556 VSS.n938 VSS.n717 8.0005
R557 VSS.n939 VSS.n718 8.0005
R558 VSS.n940 VSS.n719 8.0005
R559 VSS.n941 VSS.n720 8.0005
R560 VSS.n942 VSS.n721 8.0005
R561 VSS.n943 VSS.n722 8.0005
R562 VSS.n944 VSS.n723 8.0005
R563 VSS.n945 VSS.n724 8.0005
R564 VSS.n946 VSS.n725 8.0005
R565 VSS.n947 VSS.n726 8.0005
R566 VSS.n948 VSS.n727 8.0005
R567 VSS.n949 VSS.n728 8.0005
R568 VSS.n950 VSS.n729 8.0005
R569 VSS.n951 VSS.n730 8.0005
R570 VSS.n952 VSS.n731 8.0005
R571 VSS.n953 VSS.n732 8.0005
R572 VSS.n954 VSS.n733 8.0005
R573 VSS.n955 VSS.n734 8.0005
R574 VSS.n956 VSS.n735 8.0005
R575 VSS.n957 VSS.n736 8.0005
R576 VSS.n958 VSS.n737 8.0005
R577 VSS.n959 VSS.n738 8.0005
R578 VSS.n960 VSS.n739 8.0005
R579 VSS.n961 VSS.n740 8.0005
R580 VSS.n962 VSS.n741 8.0005
R581 VSS.n963 VSS.n742 8.0005
R582 VSS.n964 VSS.n743 8.0005
R583 VSS.n965 VSS.n744 8.0005
R584 VSS.n966 VSS.n745 8.0005
R585 VSS.n967 VSS.n746 8.0005
R586 VSS.n968 VSS.n747 8.0005
R587 VSS.n969 VSS.n748 8.0005
R588 VSS.n970 VSS.n749 8.0005
R589 VSS.n971 VSS.n750 8.0005
R590 VSS.n972 VSS.n751 8.0005
R591 VSS.n973 VSS.n752 8.0005
R592 VSS.n974 VSS.n753 8.0005
R593 VSS.n975 VSS.n754 8.0005
R594 VSS.n976 VSS.n755 8.0005
R595 VSS.n977 VSS.n756 8.0005
R596 VSS.n978 VSS.n757 8.0005
R597 VSS.n979 VSS.n758 8.0005
R598 VSS.n980 VSS.n759 8.0005
R599 VSS.n981 VSS.n760 8.0005
R600 VSS.n982 VSS.n761 8.0005
R601 VSS.n983 VSS.n762 8.0005
R602 VSS.n984 VSS.n763 8.0005
R603 VSS.n985 VSS.n764 8.0005
R604 VSS.n986 VSS.n765 8.0005
R605 VSS.n987 VSS.n766 8.0005
R606 VSS.n988 VSS.n767 8.0005
R607 VSS.n989 VSS.n768 8.0005
R608 VSS.n990 VSS.n769 8.0005
R609 VSS.n991 VSS.n770 8.0005
R610 VSS.n992 VSS.n771 8.0005
R611 VSS.n993 VSS.n772 8.0005
R612 VSS.n994 VSS.n773 8.0005
R613 VSS.n995 VSS.n774 8.0005
R614 VSS.n996 VSS.n775 8.0005
R615 VSS.n997 VSS.n776 8.0005
R616 VSS.n998 VSS.n777 8.0005
R617 VSS.n999 VSS.n778 8.0005
R618 VSS.n1000 VSS.n779 8.0005
R619 VSS.n1001 VSS.n780 8.0005
R620 VSS.n1002 VSS.n781 8.0005
R621 VSS.n1003 VSS.n782 8.0005
R622 VSS.n1004 VSS.n783 8.0005
R623 VSS.n1005 VSS.n784 8.0005
R624 VSS.n1006 VSS.n785 8.0005
R625 VSS.n1007 VSS.n786 8.0005
R626 VSS.n1008 VSS.n787 8.0005
R627 VSS.n1009 VSS.n788 8.0005
R628 VSS.n1010 VSS.n789 8.0005
R629 VSS.n1011 VSS.n790 8.0005
R630 VSS.n1012 VSS.n791 8.0005
R631 VSS.n1013 VSS.n792 8.0005
R632 VSS.n1014 VSS.n793 8.0005
R633 VSS.n1015 VSS.n794 8.0005
R634 VSS.n1016 VSS.n795 8.0005
R635 VSS.n1017 VSS.n796 8.0005
R636 VSS.n1018 VSS.n797 8.0005
R637 VSS.n1019 VSS.n798 8.0005
R638 VSS.n1020 VSS.n799 8.0005
R639 VSS.n1021 VSS.n800 8.0005
R640 VSS.n1022 VSS.n801 8.0005
R641 VSS.n1023 VSS.n802 8.0005
R642 VSS.n1024 VSS.n803 8.0005
R643 VSS.n1025 VSS.n804 8.0005
R644 VSS.n1026 VSS.n805 8.0005
R645 VSS.n1027 VSS.n806 8.0005
R646 VSS.n1028 VSS.n807 8.0005
R647 VSS.n1029 VSS.n808 8.0005
R648 VSS.n1030 VSS.n809 8.0005
R649 VSS.n1031 VSS.n810 8.0005
R650 VSS.n1032 VSS.n811 8.0005
R651 VSS.n1033 VSS.n812 8.0005
R652 VSS.n1034 VSS.n813 8.0005
R653 VSS.n1035 VSS.n814 8.0005
R654 VSS.n1036 VSS.n815 8.0005
R655 VSS.n1037 VSS.n816 8.0005
R656 VSS.n1038 VSS.n817 8.0005
R657 VSS.n1039 VSS.n818 8.0005
R658 VSS.n1040 VSS.n819 8.0005
R659 VSS.n1041 VSS.n820 8.0005
R660 VSS.n1042 VSS.n821 8.0005
R661 VSS.n1043 VSS.n822 8.0005
R662 VSS.n1044 VSS.n823 8.0005
R663 VSS.n1045 VSS.n824 8.0005
R664 VSS.n1046 VSS.n825 8.0005
R665 VSS.n1047 VSS.n826 8.0005
R666 VSS.n1048 VSS.n827 8.0005
R667 VSS.n1049 VSS.n828 8.0005
R668 VSS.n1050 VSS.n829 8.0005
R669 VSS.n1051 VSS.n830 8.0005
R670 VSS.n1052 VSS.n831 8.0005
R671 VSS.n1053 VSS.n832 8.0005
R672 VSS.n1054 VSS.n833 8.0005
R673 VSS.n1055 VSS.n834 8.0005
R674 VSS.n1056 VSS.n835 8.0005
R675 VSS.n1057 VSS.n836 8.0005
R676 VSS.n1058 VSS.n837 8.0005
R677 VSS.n1059 VSS.n838 8.0005
R678 VSS.n1060 VSS.n839 8.0005
R679 VSS.n1061 VSS.n840 8.0005
R680 VSS.n1062 VSS.n841 8.0005
R681 VSS.n1063 VSS.n842 8.0005
R682 VSS.n1064 VSS.n843 8.0005
R683 VSS.n1065 VSS.n844 8.0005
R684 VSS.n372 VSS.n98 8.0005
R685 VSS.n264 VSS.n263 8.0005
R686 VSS.n265 VSS.n200 8.0005
R687 VSS.n278 VSS.n277 8.0005
R688 VSS.n279 VSS.n199 8.0005
R689 VSS.n281 VSS.n280 8.0005
R690 VSS.n191 VSS.n190 8.0005
R691 VSS.n295 VSS.n294 8.0005
R692 VSS.n456 VSS.n455 8.0005
R693 VSS.n454 VSS.n453 8.0005
R694 VSS.n452 VSS.n451 8.0005
R695 VSS.n506 VSS.n178 8.0005
R696 VSS.n492 VSS.n179 8.0005
R697 VSS.n493 VSS.n490 8.0005
R698 VSS.n495 VSS.n494 8.0005
R699 VSS.n9 VSS.n5 8.0005
R700 VSS.n1484 VSS.n1483 8.0005
R701 VSS.n1482 VSS.n1481 8.0005
R702 VSS.n11 VSS.n10 8.0005
R703 VSS.n1475 VSS.n1474 8.0005
R704 VSS.n1473 VSS.n1472 8.0005
R705 VSS.n504 VSS.n464 6.53965
R706 VSS.n269 VSS.n268 2.26358
R707 VSS.n463 VSS.n462 2.26358
R708 VSS.n503 VSS.n502 2.26358
R709 VSS.n475 VSS.n472 2.26358
R710 VSS.n273 VSS.n270 2.2505
R711 VSS.n272 VSS.n271 2.2505
R712 VSS.n196 VSS.n195 2.2505
R713 VSS.n287 VSS.n286 2.2505
R714 VSS.n288 VSS.n194 2.2505
R715 VSS.n290 VSS.n289 2.2505
R716 VSS.n185 VSS.n184 2.2505
R717 VSS.n461 VSS.n460 2.2505
R718 VSS.n478 VSS.n477 2.2505
R719 VSS.n480 VSS.n469 2.2505
R720 VSS.n482 VSS.n481 2.2505
R721 VSS.n483 VSS.n2 2.2505
R722 VSS.n485 VSS.n484 2.2505
R723 VSS.n486 VSS.n468 2.2505
R724 VSS.n501 VSS.n500 2.2505
R725 VSS.n476 VSS.n470 2.2505
R726 VSS.n478 VSS.n13 2.2505
R727 VSS.n480 VSS.n479 2.2505
R728 VSS.n481 VSS.n1 2.2505
R729 VSS.n1489 VSS.n2 2.2505
R730 VSS.n485 VSS.n0 2.2505
R731 VSS.n487 VSS.n486 2.2505
R732 VSS.n500 VSS.n499 2.2505
R733 VSS.n467 VSS.n466 2.2505
R734 VSS.n474 VSS.n473 2.2505
R735 VSS.n470 VSS.n14 2.2505
R736 VSS.n1476 VSS.n15 2.2505
R737 VSS.n471 VSS.n16 2.2505
R738 VSS.n505 VSS.n504 2.2505
R739 VSS.n489 VSS.n465 2.2505
R740 VSS.n498 VSS.n497 2.2505
R741 VSS.n496 VSS.n488 2.2505
R742 VSS.n491 VSS.n3 2.2505
R743 VSS.n1488 VSS.n1487 2.2505
R744 VSS.n1485 VSS.n4 2.2505
R745 VSS.n12 VSS.n8 2.2505
R746 VSS.n1480 VSS.n1479 2.2505
R747 VSS.n1479 VSS.n13 2.2505
R748 VSS.n479 VSS.n12 2.2505
R749 VSS.n4 VSS.n1 2.2505
R750 VSS.n1489 VSS.n1488 2.2505
R751 VSS.n3 VSS.n0 2.2505
R752 VSS.n488 VSS.n487 2.2505
R753 VSS.n499 VSS.n498 2.2505
R754 VSS.n466 VSS.n465 2.2505
R755 VSS.n504 VSS.n503 2.2505
R756 VSS.n473 VSS.n15 2.2505
R757 VSS.n472 VSS.n471 2.2505
R758 VSS.n1478 VSS.n14 2.2505
R759 VSS.n1478 VSS.n1477 2.2505
R760 VSS.n267 VSS.n266 2.2505
R761 VSS.n203 VSS.n201 2.2505
R762 VSS.n276 VSS.n275 2.2505
R763 VSS.n202 VSS.n198 2.2505
R764 VSS.n283 VSS.n282 2.2505
R765 VSS.n284 VSS.n96 2.2505
R766 VSS.n192 VSS.n97 2.2505
R767 VSS.n293 VSS.n292 2.2505
R768 VSS.n188 VSS.n187 2.2505
R769 VSS.n458 VSS.n457 2.2505
R770 VSS.n189 VSS.n180 2.2505
R771 VSS.n464 VSS.n181 2.2505
R772 VSS.n464 VSS.n463 2.2505
R773 VSS.n182 VSS.n180 2.2505
R774 VSS.n459 VSS.n458 2.2505
R775 VSS.n187 VSS.n186 2.2505
R776 VSS.n292 VSS.n291 2.2505
R777 VSS.n193 VSS.n192 2.2505
R778 VSS.n285 VSS.n284 2.2505
R779 VSS.n283 VSS.n197 2.2505
R780 VSS.n205 VSS.n198 2.2505
R781 VSS.n275 VSS.n274 2.2505
R782 VSS.n204 VSS.n203 2.2505
R783 VSS.n206 VSS.n204 2.2505
R784 VSS.n274 VSS.n273 2.2505
R785 VSS.n272 VSS.n205 2.2505
R786 VSS.n197 VSS.n196 2.2505
R787 VSS.n286 VSS.n285 2.2505
R788 VSS.n194 VSS.n193 2.2505
R789 VSS.n291 VSS.n290 2.2505
R790 VSS.n186 VSS.n185 2.2505
R791 VSS.n460 VSS.n459 2.2505
R792 VSS.n183 VSS.n182 2.2505
R793 VSS.n268 VSS.n267 2.2505
R794 VSS.n622 VSS.n621 1.3005
R795 VSS.n1242 VSS.n623 1.3005
R796 VSS.n270 VSS.n269 1.14072
R797 VSS.n462 VSS.n461 1.14072
R798 VSS.n502 VSS.n501 1.14072
R799 VSS.n476 VSS.n475 1.14072
R800 VSS.n592 VSS.n591 0.695237
R801 VSS.n591 VSS.n590 0.695237
R802 VSS.n1486 VSS.n6 0.695237
R803 VSS.n1486 VSS.n7 0.695237
R804 VSS.n1243 VSS.n1242 0.31003
R805 VSS.n1242 VSS.n1241 0.27425
R806 VSS.n621 VSS.n66 0.192934
R807 VSS.n621 VSS.n620 0.192934
R808 VSS.n1241 VSS.n1066 0.160647
R809 VSS.n1240 VSS.n844 0.160647
R810 VSS.n1239 VSS.n843 0.160647
R811 VSS.n1238 VSS.n842 0.160647
R812 VSS.n1237 VSS.n841 0.160647
R813 VSS.n1236 VSS.n840 0.160647
R814 VSS.n1235 VSS.n839 0.160647
R815 VSS.n1234 VSS.n838 0.160647
R816 VSS.n1233 VSS.n837 0.160647
R817 VSS.n1232 VSS.n836 0.160647
R818 VSS.n1231 VSS.n835 0.160647
R819 VSS.n1230 VSS.n834 0.160647
R820 VSS.n1229 VSS.n833 0.160647
R821 VSS.n1228 VSS.n832 0.160647
R822 VSS.n1227 VSS.n831 0.160647
R823 VSS.n1226 VSS.n830 0.160647
R824 VSS.n1225 VSS.n829 0.160647
R825 VSS.n1224 VSS.n828 0.160647
R826 VSS.n1223 VSS.n827 0.160647
R827 VSS.n1222 VSS.n826 0.160647
R828 VSS.n1221 VSS.n825 0.160647
R829 VSS.n1220 VSS.n824 0.160647
R830 VSS.n1219 VSS.n823 0.160647
R831 VSS.n1218 VSS.n822 0.160647
R832 VSS.n1217 VSS.n821 0.160647
R833 VSS.n1216 VSS.n820 0.160647
R834 VSS.n1215 VSS.n819 0.160647
R835 VSS.n1214 VSS.n818 0.160647
R836 VSS.n1213 VSS.n817 0.160647
R837 VSS.n1212 VSS.n816 0.160647
R838 VSS.n1211 VSS.n815 0.160647
R839 VSS.n1210 VSS.n814 0.160647
R840 VSS.n1209 VSS.n813 0.160647
R841 VSS.n1208 VSS.n812 0.160647
R842 VSS.n1207 VSS.n811 0.160647
R843 VSS.n1206 VSS.n810 0.160647
R844 VSS.n1205 VSS.n809 0.160647
R845 VSS.n1204 VSS.n808 0.160647
R846 VSS.n1203 VSS.n807 0.160647
R847 VSS.n1202 VSS.n806 0.160647
R848 VSS.n1201 VSS.n805 0.160647
R849 VSS.n1200 VSS.n804 0.160647
R850 VSS.n1199 VSS.n803 0.160647
R851 VSS.n1198 VSS.n802 0.160647
R852 VSS.n1197 VSS.n801 0.160647
R853 VSS.n1196 VSS.n800 0.160647
R854 VSS.n1195 VSS.n799 0.160647
R855 VSS.n1194 VSS.n798 0.160647
R856 VSS.n1193 VSS.n797 0.160647
R857 VSS.n1192 VSS.n796 0.160647
R858 VSS.n1191 VSS.n795 0.160647
R859 VSS.n1190 VSS.n794 0.160647
R860 VSS.n1189 VSS.n793 0.160647
R861 VSS.n1188 VSS.n792 0.160647
R862 VSS.n1187 VSS.n791 0.160647
R863 VSS.n1186 VSS.n790 0.160647
R864 VSS.n1185 VSS.n789 0.160647
R865 VSS.n1184 VSS.n788 0.160647
R866 VSS.n1183 VSS.n787 0.160647
R867 VSS.n1182 VSS.n786 0.160647
R868 VSS.n1181 VSS.n785 0.160647
R869 VSS.n1180 VSS.n784 0.160647
R870 VSS.n1179 VSS.n783 0.160647
R871 VSS.n1178 VSS.n782 0.160647
R872 VSS.n1177 VSS.n781 0.160647
R873 VSS.n1176 VSS.n780 0.160647
R874 VSS.n1175 VSS.n779 0.160647
R875 VSS.n1174 VSS.n778 0.160647
R876 VSS.n1173 VSS.n777 0.160647
R877 VSS.n1172 VSS.n776 0.160647
R878 VSS.n1171 VSS.n775 0.160647
R879 VSS.n1170 VSS.n774 0.160647
R880 VSS.n1169 VSS.n773 0.160647
R881 VSS.n1168 VSS.n772 0.160647
R882 VSS.n1167 VSS.n771 0.160647
R883 VSS.n1166 VSS.n770 0.160647
R884 VSS.n1165 VSS.n769 0.160647
R885 VSS.n1164 VSS.n768 0.160647
R886 VSS.n1163 VSS.n767 0.160647
R887 VSS.n1162 VSS.n766 0.160647
R888 VSS.n1161 VSS.n765 0.160647
R889 VSS.n1160 VSS.n764 0.160647
R890 VSS.n1159 VSS.n763 0.160647
R891 VSS.n1158 VSS.n762 0.160647
R892 VSS.n1157 VSS.n761 0.160647
R893 VSS.n1156 VSS.n760 0.160647
R894 VSS.n1155 VSS.n759 0.160647
R895 VSS.n1154 VSS.n758 0.160647
R896 VSS.n1153 VSS.n757 0.160647
R897 VSS.n1152 VSS.n756 0.160647
R898 VSS.n1151 VSS.n755 0.160647
R899 VSS.n1150 VSS.n754 0.160647
R900 VSS.n1149 VSS.n753 0.160647
R901 VSS.n1148 VSS.n752 0.160647
R902 VSS.n1147 VSS.n751 0.160647
R903 VSS.n1146 VSS.n750 0.160647
R904 VSS.n1145 VSS.n749 0.160647
R905 VSS.n1144 VSS.n748 0.160647
R906 VSS.n1143 VSS.n747 0.160647
R907 VSS.n1142 VSS.n746 0.160647
R908 VSS.n1141 VSS.n745 0.160647
R909 VSS.n1140 VSS.n744 0.160647
R910 VSS.n1139 VSS.n743 0.160647
R911 VSS.n1138 VSS.n742 0.160647
R912 VSS.n1137 VSS.n741 0.160647
R913 VSS.n1136 VSS.n740 0.160647
R914 VSS.n1135 VSS.n739 0.160647
R915 VSS.n1134 VSS.n738 0.160647
R916 VSS.n1133 VSS.n737 0.160647
R917 VSS.n1132 VSS.n736 0.160647
R918 VSS.n1131 VSS.n735 0.160647
R919 VSS.n1130 VSS.n734 0.160647
R920 VSS.n1129 VSS.n733 0.160647
R921 VSS.n1128 VSS.n732 0.160647
R922 VSS.n1127 VSS.n731 0.160647
R923 VSS.n1126 VSS.n730 0.160647
R924 VSS.n1125 VSS.n729 0.160647
R925 VSS.n1124 VSS.n728 0.160647
R926 VSS.n1123 VSS.n727 0.160647
R927 VSS.n1122 VSS.n726 0.160647
R928 VSS.n1121 VSS.n725 0.160647
R929 VSS.n1120 VSS.n724 0.160647
R930 VSS.n1119 VSS.n723 0.160647
R931 VSS.n1118 VSS.n722 0.160647
R932 VSS.n1117 VSS.n721 0.160647
R933 VSS.n1116 VSS.n720 0.160647
R934 VSS.n1115 VSS.n719 0.160647
R935 VSS.n1114 VSS.n718 0.160647
R936 VSS.n1113 VSS.n717 0.160647
R937 VSS.n1112 VSS.n716 0.160647
R938 VSS.n1111 VSS.n715 0.160647
R939 VSS.n1110 VSS.n714 0.160647
R940 VSS.n1109 VSS.n713 0.160647
R941 VSS.n1108 VSS.n712 0.160647
R942 VSS.n1107 VSS.n711 0.160647
R943 VSS.n1106 VSS.n710 0.160647
R944 VSS.n1105 VSS.n709 0.160647
R945 VSS.n1104 VSS.n708 0.160647
R946 VSS.n1103 VSS.n707 0.160647
R947 VSS.n1102 VSS.n706 0.160647
R948 VSS.n1101 VSS.n705 0.160647
R949 VSS.n1100 VSS.n704 0.160647
R950 VSS.n1099 VSS.n703 0.160647
R951 VSS.n1098 VSS.n702 0.160647
R952 VSS.n1097 VSS.n701 0.160647
R953 VSS.n1096 VSS.n700 0.160647
R954 VSS.n1095 VSS.n699 0.160647
R955 VSS.n1094 VSS.n698 0.160647
R956 VSS.n1093 VSS.n697 0.160647
R957 VSS.n1092 VSS.n696 0.160647
R958 VSS.n1091 VSS.n695 0.160647
R959 VSS.n1090 VSS.n694 0.160647
R960 VSS.n1089 VSS.n693 0.160647
R961 VSS.n1088 VSS.n692 0.160647
R962 VSS.n1087 VSS.n691 0.160647
R963 VSS.n1086 VSS.n690 0.160647
R964 VSS.n1085 VSS.n689 0.160647
R965 VSS.n1084 VSS.n688 0.160647
R966 VSS.n1083 VSS.n687 0.160647