* NGSPICE file created from gf180mcu_fd_io__dvdd_flat.ext - technology: gf180mcuD

.subckt gf180mcu_fd_io__dvdd_flat VSS DVSS DVDD
X0 DVDD.t153 GF_NI_DVDD_BASE_0.comp018green_esd_clamp_v5p0_DVDD_0/pmos_6p0_CDNS_406619531456_0.D.t4 GF_NI_DVDD_BASE_0.comp018green_esd_clamp_v5p0_DVDD_0/pmos_6p0_CDNS_406619531455_0.D.t14 DVDD.t152 pfet_06v0 ad=1.3p pd=5.52u as=1.3p ps=5.52u w=5u l=0.7u
X1 DVDD.t104 GF_NI_DVDD_BASE_0.comp018green_esd_clamp_v5p0_DVDD_0/pmos_6p0_CDNS_406619531455_0.D.t17 DVSS.t179 DVSS.t178 nfet_06v0 ad=12.999999p pd=50.52u as=12.999999p ps=50.52u w=50u l=0.7u
X2 GF_NI_DVDD_BASE_0.comp018green_esd_clamp_v5p0_DVDD_0/pmos_6p0_CDNS_406619531455_0.D.t11 GF_NI_DVDD_BASE_0.comp018green_esd_clamp_v5p0_DVDD_0/pmos_6p0_CDNS_406619531456_0.D.t5 DVDD.t151 DVDD.t150 pfet_06v0 ad=1.3p pd=5.52u as=1.3p ps=5.52u w=5u l=0.7u
X3 DVDD.t103 GF_NI_DVDD_BASE_0.comp018green_esd_clamp_v5p0_DVDD_0/pmos_6p0_CDNS_406619531455_0.D.t18 DVSS.t177 DVSS.t176 nfet_06v0 ad=12.999999p pd=50.52u as=12.999999p ps=50.52u w=50u l=0.7u
X4 DVDD.t102 GF_NI_DVDD_BASE_0.comp018green_esd_clamp_v5p0_DVDD_0/pmos_6p0_CDNS_406619531455_0.D.t19 DVSS.t175 DVSS.t174 nfet_06v0 ad=12.999999p pd=50.52u as=12.999999p ps=50.52u w=50u l=0.7u
X5 DVDD.t149 GF_NI_DVDD_BASE_0.comp018green_esd_clamp_v5p0_DVDD_0/pmos_6p0_CDNS_406619531456_0.D.t6 GF_NI_DVDD_BASE_0.comp018green_esd_clamp_v5p0_DVDD_0/pmos_6p0_CDNS_406619531455_0.D.t9 DVDD.t148 pfet_06v0 ad=1.3p pd=5.52u as=1.3p ps=5.52u w=5u l=0.7u
X6 DVDD.t147 GF_NI_DVDD_BASE_0.comp018green_esd_clamp_v5p0_DVDD_0/pmos_6p0_CDNS_406619531456_0.D.t7 GF_NI_DVDD_BASE_0.comp018green_esd_clamp_v5p0_DVDD_0/pmos_6p0_CDNS_406619531455_0.D.t15 DVDD.t146 pfet_06v0 ad=2.2p pd=10.879999u as=1.3p ps=5.52u w=5u l=0.7u
X7 DVSS.t173 GF_NI_DVDD_BASE_0.comp018green_esd_clamp_v5p0_DVDD_0/pmos_6p0_CDNS_406619531455_0.D.t20 DVDD.t101 DVSS.t172 nfet_06v0 ad=12.999999p pd=50.52u as=12.999999p ps=50.52u w=50u l=0.7u
X8 DVSS.t171 GF_NI_DVDD_BASE_0.comp018green_esd_clamp_v5p0_DVDD_0/pmos_6p0_CDNS_406619531455_0.D.t21 DVDD.t100 DVSS.t170 nfet_06v0 ad=12.999999p pd=50.52u as=12.999999p ps=50.52u w=50u l=0.7u
X9 DVSS.t169 GF_NI_DVDD_BASE_0.comp018green_esd_clamp_v5p0_DVDD_0/pmos_6p0_CDNS_406619531455_0.D.t22 DVDD.t99 DVSS.t168 nfet_06v0 ad=12.999999p pd=50.52u as=12.999999p ps=50.52u w=50u l=0.7u
X10 DVSS.t167 GF_NI_DVDD_BASE_0.comp018green_esd_clamp_v5p0_DVDD_0/pmos_6p0_CDNS_406619531455_0.D.t23 DVDD.t98 DVSS.t166 nfet_06v0 ad=12.999999p pd=50.52u as=12.999999p ps=50.52u w=50u l=0.7u
X11 DVSS.t165 GF_NI_DVDD_BASE_0.comp018green_esd_clamp_v5p0_DVDD_0/pmos_6p0_CDNS_406619531455_0.D.t24 DVDD.t97 DVSS.t164 nfet_06v0 ad=12.999999p pd=50.52u as=12.999999p ps=50.52u w=50u l=0.7u
X12 DVDD.t155 DVSS.t196 cap_nmos_06v0 c_width=15u c_length=15u
X13 DVDD.t96 GF_NI_DVDD_BASE_0.comp018green_esd_clamp_v5p0_DVDD_0/pmos_6p0_CDNS_406619531455_0.D.t25 DVSS.t163 DVSS.t162 nfet_06v0 ad=12.999999p pd=50.52u as=12.999999p ps=50.52u w=50u l=0.7u
X14 GF_NI_DVDD_BASE_0.comp018green_esd_clamp_v5p0_DVDD_0/pmos_6p0_CDNS_406619531456_0.D.t2 GF_NI_DVDD_BASE_0.comp018green_esd_clamp_v5p0_DVDD_0/pmos_6p0_CDNS_406619531452_0.D.t3 DVDD.t7 DVDD.t6 pfet_06v0 ad=2.2p pd=10.879999u as=1.3p ps=5.52u w=5u l=0.7u
X15 DVDD.t95 GF_NI_DVDD_BASE_0.comp018green_esd_clamp_v5p0_DVDD_0/pmos_6p0_CDNS_406619531455_0.D.t26 DVSS.t161 DVSS.t160 nfet_06v0 ad=12.999999p pd=50.52u as=12.999999p ps=50.52u w=50u l=0.7u
X16 DVDD.t94 GF_NI_DVDD_BASE_0.comp018green_esd_clamp_v5p0_DVDD_0/pmos_6p0_CDNS_406619531455_0.D.t27 DVSS.t159 DVSS.t158 nfet_06v0 ad=12.999999p pd=50.52u as=12.999999p ps=50.52u w=50u l=0.7u
X17 GF_NI_DVDD_BASE_0.comp018green_esd_clamp_v5p0_DVDD_0/pmos_6p0_CDNS_406619531455_0.D.t7 GF_NI_DVDD_BASE_0.comp018green_esd_clamp_v5p0_DVDD_0/pmos_6p0_CDNS_406619531456_0.D.t8 DVDD.t145 DVDD.t144 pfet_06v0 ad=1.3p pd=5.52u as=1.3p ps=5.52u w=5u l=0.7u
X18 GF_NI_DVDD_BASE_0.comp018green_esd_clamp_v5p0_DVDD_0/pmos_6p0_CDNS_406619531455_0.D.t16 GF_NI_DVDD_BASE_0.comp018green_esd_clamp_v5p0_DVDD_0/pmos_6p0_CDNS_406619531456_0.D.t9 DVDD.t143 DVDD.t142 pfet_06v0 ad=1.3p pd=5.52u as=1.3p ps=5.52u w=5u l=0.7u
X19 DVSS.t157 GF_NI_DVDD_BASE_0.comp018green_esd_clamp_v5p0_DVDD_0/pmos_6p0_CDNS_406619531455_0.D.t28 DVDD.t93 DVSS.t156 nfet_06v0 ad=12.999999p pd=50.52u as=12.999999p ps=50.52u w=50u l=0.7u
X20 DVSS.t155 GF_NI_DVDD_BASE_0.comp018green_esd_clamp_v5p0_DVDD_0/pmos_6p0_CDNS_406619531455_0.D.t29 DVDD.t92 DVSS.t154 nfet_06v0 ad=12.999999p pd=50.52u as=12.999999p ps=50.52u w=50u l=0.7u
X21 GF_NI_DVDD_BASE_0.comp018green_esd_clamp_v5p0_DVDD_0/comp018green_esd_rc_v5p0_0.ppolyf_u_CDNS_406619531453_1.MINUS.t0 GF_NI_DVDD_BASE_0.comp018green_esd_clamp_v5p0_DVDD_0/comp018green_esd_rc_v5p0_0.ppolyf_u_CDNS_406619531453_0.PLUS.t1 DVDD.t19 ppolyf_u r_width=0.8u r_length=63.854996u
X22 DVDD.t91 GF_NI_DVDD_BASE_0.comp018green_esd_clamp_v5p0_DVDD_0/pmos_6p0_CDNS_406619531455_0.D.t30 DVSS.t153 DVSS.t152 nfet_06v0 ad=21.999998p pd=0.10088m as=12.999999p ps=50.52u w=50u l=0.7u
X23 DVDD.t5 GF_NI_DVDD_BASE_0.comp018green_esd_clamp_v5p0_DVDD_0/comp018green_esd_rc_v5p0_0.VRC.t1 GF_NI_DVDD_BASE_0.comp018green_esd_clamp_v5p0_DVDD_0/pmos_6p0_CDNS_406619531452_0.D.t1 DVDD.t4 pfet_06v0 ad=1.3p pd=5.52u as=1.3p ps=5.52u w=5u l=0.7u
X24 DVDD.t90 GF_NI_DVDD_BASE_0.comp018green_esd_clamp_v5p0_DVDD_0/pmos_6p0_CDNS_406619531455_0.D.t31 DVSS.t151 DVSS.t150 nfet_06v0 ad=12.999999p pd=50.52u as=12.999999p ps=50.52u w=50u l=0.7u
D0 DVSS.t192 DVDD.t156 diode_nd2ps_06v0 pj=82u area=40p
X25 GF_NI_DVDD_BASE_0.comp018green_esd_clamp_v5p0_DVDD_0/pmos_6p0_CDNS_406619531452_0.D.t1 GF_NI_DVDD_BASE_0.comp018green_esd_clamp_v5p0_DVDD_0/comp018green_esd_rc_v5p0_0.VRC.t2 DVDD.t3 DVDD.t2 pfet_06v0 ad=1.3p pd=5.52u as=1.3p ps=5.52u w=5u l=0.7u
X26 DVSS.t149 GF_NI_DVDD_BASE_0.comp018green_esd_clamp_v5p0_DVDD_0/pmos_6p0_CDNS_406619531455_0.D.t32 DVDD.t89 DVSS.t148 nfet_06v0 ad=12.999999p pd=50.52u as=12.999999p ps=50.52u w=50u l=0.7u
X27 GF_NI_DVDD_BASE_0.comp018green_esd_clamp_v5p0_DVDD_0/comp018green_esd_rc_v5p0_0.ppolyf_u_CDNS_406619531453_5.MINUS.t0 GF_NI_DVDD_BASE_0.comp018green_esd_clamp_v5p0_DVDD_0/comp018green_esd_rc_v5p0_0.ppolyf_u_CDNS_406619531453_3.PLUS.t0 DVDD.t14 ppolyf_u r_width=0.8u r_length=63.854996u
X28 DVSS.t147 GF_NI_DVDD_BASE_0.comp018green_esd_clamp_v5p0_DVDD_0/pmos_6p0_CDNS_406619531455_0.D.t33 DVDD.t88 DVSS.t146 nfet_06v0 ad=12.999999p pd=50.52u as=12.999999p ps=50.52u w=50u l=0.7u
X29 DVDD.t157 DVSS.t195 cap_nmos_06v0 c_width=15u c_length=15u
X30 DVDD.t158 DVSS.t194 cap_nmos_06v0 c_width=15u c_length=15u
X31 DVSS.t191 GF_NI_DVDD_BASE_0.comp018green_esd_clamp_v5p0_DVDD_0/pmos_6p0_CDNS_406619531456_0.D.t10 GF_NI_DVDD_BASE_0.comp018green_esd_clamp_v5p0_DVDD_0/pmos_6p0_CDNS_406619531455_0.D.t3 DVSS.t190 nfet_06v0 ad=1.3p pd=5.52u as=1.3p ps=5.52u w=5u l=0.7u
X32 DVDD.t87 GF_NI_DVDD_BASE_0.comp018green_esd_clamp_v5p0_DVDD_0/pmos_6p0_CDNS_406619531455_0.D.t34 DVSS.t145 DVSS.t144 nfet_06v0 ad=12.999999p pd=50.52u as=12.999999p ps=50.52u w=50u l=0.7u
X33 GF_NI_DVDD_BASE_0.comp018green_esd_clamp_v5p0_DVDD_0/pmos_6p0_CDNS_406619531455_0.D.t2 GF_NI_DVDD_BASE_0.comp018green_esd_clamp_v5p0_DVDD_0/pmos_6p0_CDNS_406619531456_0.D.t11 DVSS.t189 DVSS.t188 nfet_06v0 ad=1.3p pd=5.52u as=1.3p ps=5.52u w=5u l=0.7u
X34 GF_NI_DVDD_BASE_0.comp018green_esd_clamp_v5p0_DVDD_0/comp018green_esd_rc_v5p0_0.ppolyf_u_CDNS_406619531453_2.MINUS.t1 GF_NI_DVDD_BASE_0.comp018green_esd_clamp_v5p0_DVDD_0/comp018green_esd_rc_v5p0_0.ppolyf_u_CDNS_406619531453_4.PLUS.t0 DVDD.t105 ppolyf_u r_width=0.8u r_length=63.854996u
X35 DVDD.t86 GF_NI_DVDD_BASE_0.comp018green_esd_clamp_v5p0_DVDD_0/pmos_6p0_CDNS_406619531455_0.D.t35 DVSS.t143 DVSS.t142 nfet_06v0 ad=12.999999p pd=50.52u as=12.999999p ps=50.52u w=50u l=0.7u
X36 GF_NI_DVDD_BASE_0.comp018green_esd_clamp_v5p0_DVDD_0/pmos_6p0_CDNS_406619531455_0.D.t14 GF_NI_DVDD_BASE_0.comp018green_esd_clamp_v5p0_DVDD_0/pmos_6p0_CDNS_406619531456_0.D.t12 DVDD.t141 DVDD.t140 pfet_06v0 ad=1.3p pd=5.52u as=1.3p ps=5.52u w=5u l=0.7u
X37 DVDD.t85 GF_NI_DVDD_BASE_0.comp018green_esd_clamp_v5p0_DVDD_0/pmos_6p0_CDNS_406619531455_0.D.t36 DVSS.t141 DVSS.t140 nfet_06v0 ad=12.999999p pd=50.52u as=12.999999p ps=50.52u w=50u l=0.7u
X38 GF_NI_DVDD_BASE_0.comp018green_esd_clamp_v5p0_DVDD_0/pmos_6p0_CDNS_406619531452_0.D.t2 GF_NI_DVDD_BASE_0.comp018green_esd_clamp_v5p0_DVDD_0/comp018green_esd_rc_v5p0_0.VRC.t3 DVSS.t13 DVSS.t12 nfet_06v0 ad=2.2p pd=10.879999u as=2.2p ps=10.879999u w=5u l=0.7u
X39 DVSS.t139 GF_NI_DVDD_BASE_0.comp018green_esd_clamp_v5p0_DVDD_0/pmos_6p0_CDNS_406619531455_0.D.t37 DVDD.t84 DVSS.t138 nfet_06v0 ad=12.999999p pd=50.52u as=21.999998p ps=0.10088m w=50u l=0.7u
X40 DVSS.t137 GF_NI_DVDD_BASE_0.comp018green_esd_clamp_v5p0_DVDD_0/pmos_6p0_CDNS_406619531455_0.D.t38 DVDD.t83 DVSS.t136 nfet_06v0 ad=12.999999p pd=50.52u as=12.999999p ps=50.52u w=50u l=0.7u
X41 DVSS.t135 GF_NI_DVDD_BASE_0.comp018green_esd_clamp_v5p0_DVDD_0/pmos_6p0_CDNS_406619531455_0.D.t39 DVDD.t82 DVSS.t134 nfet_06v0 ad=12.999999p pd=50.52u as=12.999999p ps=50.52u w=50u l=0.7u
X42 GF_NI_DVDD_BASE_0.comp018green_esd_clamp_v5p0_DVDD_0/pmos_6p0_CDNS_406619531456_0.D.t1 GF_NI_DVDD_BASE_0.comp018green_esd_clamp_v5p0_DVDD_0/pmos_6p0_CDNS_406619531452_0.D.t4 DVSS.t10 DVSS.t9 nfet_06v0 ad=1.3p pd=5.52u as=2.2p ps=10.879999u w=5u l=0.7u
X43 GF_NI_DVDD_BASE_0.comp018green_esd_clamp_v5p0_DVDD_0/pmos_6p0_CDNS_406619531455_0.D.t13 GF_NI_DVDD_BASE_0.comp018green_esd_clamp_v5p0_DVDD_0/pmos_6p0_CDNS_406619531456_0.D.t13 DVDD.t139 DVDD.t138 pfet_06v0 ad=1.3p pd=5.52u as=1.3p ps=5.52u w=5u l=0.7u
X44 DVSS.t133 GF_NI_DVDD_BASE_0.comp018green_esd_clamp_v5p0_DVDD_0/pmos_6p0_CDNS_406619531455_0.D.t40 DVDD.t81 DVSS.t132 nfet_06v0 ad=12.999999p pd=50.52u as=12.999999p ps=50.52u w=50u l=0.7u
X45 DVSS.t6 GF_NI_DVDD_BASE_0.comp018green_esd_clamp_v5p0_DVDD_0/pmos_6p0_CDNS_406619531452_0.D.t5 GF_NI_DVDD_BASE_0.comp018green_esd_clamp_v5p0_DVDD_0/pmos_6p0_CDNS_406619531456_0.D.t0 DVSS.t5 nfet_06v0 ad=1.3p pd=5.52u as=1.3p ps=5.52u w=5u l=0.7u
X46 DVDD.t80 GF_NI_DVDD_BASE_0.comp018green_esd_clamp_v5p0_DVDD_0/pmos_6p0_CDNS_406619531455_0.D.t41 DVSS.t131 DVSS.t130 nfet_06v0 ad=12.999999p pd=50.52u as=12.999999p ps=50.52u w=50u l=0.7u
X47 DVDD.t137 GF_NI_DVDD_BASE_0.comp018green_esd_clamp_v5p0_DVDD_0/pmos_6p0_CDNS_406619531456_0.D.t14 GF_NI_DVDD_BASE_0.comp018green_esd_clamp_v5p0_DVDD_0/pmos_6p0_CDNS_406619531455_0.D.t12 DVDD.t136 pfet_06v0 ad=1.3p pd=5.52u as=1.3p ps=5.52u w=5u l=0.7u
X48 DVDD.t79 GF_NI_DVDD_BASE_0.comp018green_esd_clamp_v5p0_DVDD_0/pmos_6p0_CDNS_406619531455_0.D.t42 DVSS.t129 DVSS.t128 nfet_06v0 ad=12.999999p pd=50.52u as=12.999999p ps=50.52u w=50u l=0.7u
X49 DVDD.t78 GF_NI_DVDD_BASE_0.comp018green_esd_clamp_v5p0_DVDD_0/pmos_6p0_CDNS_406619531455_0.D.t43 DVSS.t127 DVSS.t126 nfet_06v0 ad=12.999999p pd=50.52u as=12.999999p ps=50.52u w=50u l=0.7u
X50 DVDD.t77 GF_NI_DVDD_BASE_0.comp018green_esd_clamp_v5p0_DVDD_0/pmos_6p0_CDNS_406619531455_0.D.t44 DVSS.t125 DVSS.t124 nfet_06v0 ad=12.999999p pd=50.52u as=12.999999p ps=50.52u w=50u l=0.7u
X51 GF_NI_DVDD_BASE_0.comp018green_esd_clamp_v5p0_DVDD_0/pmos_6p0_CDNS_406619531455_0.D.t12 GF_NI_DVDD_BASE_0.comp018green_esd_clamp_v5p0_DVDD_0/pmos_6p0_CDNS_406619531456_0.D.t15 DVDD.t135 DVDD.t134 pfet_06v0 ad=1.3p pd=5.52u as=1.3p ps=5.52u w=5u l=0.7u
X52 DVDD.t76 GF_NI_DVDD_BASE_0.comp018green_esd_clamp_v5p0_DVDD_0/pmos_6p0_CDNS_406619531455_0.D.t45 DVSS.t123 DVSS.t122 nfet_06v0 ad=12.999999p pd=50.52u as=12.999999p ps=50.52u w=50u l=0.7u
X53 DVDD.t133 GF_NI_DVDD_BASE_0.comp018green_esd_clamp_v5p0_DVDD_0/pmos_6p0_CDNS_406619531456_0.D.t16 GF_NI_DVDD_BASE_0.comp018green_esd_clamp_v5p0_DVDD_0/pmos_6p0_CDNS_406619531455_0.D.t8 DVDD.t132 pfet_06v0 ad=1.3p pd=5.52u as=1.3p ps=5.52u w=5u l=0.7u
X54 DVSS.t121 GF_NI_DVDD_BASE_0.comp018green_esd_clamp_v5p0_DVDD_0/pmos_6p0_CDNS_406619531455_0.D.t46 DVDD.t75 DVSS.t120 nfet_06v0 ad=12.999999p pd=50.52u as=12.999999p ps=50.52u w=50u l=0.7u
X55 DVDD.t74 GF_NI_DVDD_BASE_0.comp018green_esd_clamp_v5p0_DVDD_0/pmos_6p0_CDNS_406619531455_0.D.t47 DVSS.t119 DVSS.t118 nfet_06v0 ad=21.999998p pd=0.10088m as=12.999999p ps=50.52u w=50u l=0.7u
X56 GF_NI_DVDD_BASE_0.comp018green_esd_clamp_v5p0_DVDD_0/comp018green_esd_rc_v5p0_0.VRC.t4 DVSS.t11 cap_nmos_06v0 c_width=25u c_length=10u
X57 DVDD.t73 GF_NI_DVDD_BASE_0.comp018green_esd_clamp_v5p0_DVDD_0/pmos_6p0_CDNS_406619531455_0.D.t48 DVSS.t117 DVSS.t116 nfet_06v0 ad=12.999999p pd=50.52u as=12.999999p ps=50.52u w=50u l=0.7u
X58 DVDD.t131 GF_NI_DVDD_BASE_0.comp018green_esd_clamp_v5p0_DVDD_0/pmos_6p0_CDNS_406619531456_0.D.t17 GF_NI_DVDD_BASE_0.comp018green_esd_clamp_v5p0_DVDD_0/pmos_6p0_CDNS_406619531455_0.D.t11 DVDD.t130 pfet_06v0 ad=1.3p pd=5.52u as=1.3p ps=5.52u w=5u l=0.7u
X59 GF_NI_DVDD_BASE_0.comp018green_esd_clamp_v5p0_DVDD_0/comp018green_esd_rc_v5p0_0.VRC.t0 GF_NI_DVDD_BASE_0.comp018green_esd_clamp_v5p0_DVDD_0/comp018green_esd_rc_v5p0_0.ppolyf_u_CDNS_406619531453_0.PLUS.t0 DVDD.t15 ppolyf_u r_width=0.8u r_length=63.854996u
X60 DVDD.t72 GF_NI_DVDD_BASE_0.comp018green_esd_clamp_v5p0_DVDD_0/pmos_6p0_CDNS_406619531455_0.D.t49 DVSS.t115 DVSS.t114 nfet_06v0 ad=12.999999p pd=50.52u as=12.999999p ps=50.52u w=50u l=0.7u
X61 DVDD.t129 GF_NI_DVDD_BASE_0.comp018green_esd_clamp_v5p0_DVDD_0/pmos_6p0_CDNS_406619531456_0.D.t18 GF_NI_DVDD_BASE_0.comp018green_esd_clamp_v5p0_DVDD_0/pmos_6p0_CDNS_406619531455_0.D.t10 DVDD.t128 pfet_06v0 ad=1.3p pd=5.52u as=1.3p ps=5.52u w=5u l=0.7u
X62 DVDD.t71 GF_NI_DVDD_BASE_0.comp018green_esd_clamp_v5p0_DVDD_0/pmos_6p0_CDNS_406619531455_0.D.t50 DVSS.t113 DVSS.t112 nfet_06v0 ad=12.999999p pd=50.52u as=12.999999p ps=50.52u w=50u l=0.7u
X63 GF_NI_DVDD_BASE_0.comp018green_esd_clamp_v5p0_DVDD_0/comp018green_esd_rc_v5p0_0.VRC.t5 DVSS.t2 cap_nmos_06v0 c_width=25u c_length=10u
X64 GF_NI_DVDD_BASE_0.comp018green_esd_clamp_v5p0_DVDD_0/pmos_6p0_CDNS_406619531455_0.D.t10 GF_NI_DVDD_BASE_0.comp018green_esd_clamp_v5p0_DVDD_0/pmos_6p0_CDNS_406619531456_0.D.t19 DVDD.t127 DVDD.t126 pfet_06v0 ad=1.3p pd=5.52u as=2.2p ps=10.879999u w=5u l=0.7u
X65 DVSS.t111 GF_NI_DVDD_BASE_0.comp018green_esd_clamp_v5p0_DVDD_0/pmos_6p0_CDNS_406619531455_0.D.t51 DVDD.t70 DVSS.t110 nfet_06v0 ad=12.999999p pd=50.52u as=12.999999p ps=50.52u w=50u l=0.7u
X66 DVSS.t109 GF_NI_DVDD_BASE_0.comp018green_esd_clamp_v5p0_DVDD_0/pmos_6p0_CDNS_406619531455_0.D.t52 DVDD.t69 DVSS.t108 nfet_06v0 ad=12.999999p pd=50.52u as=12.999999p ps=50.52u w=50u l=0.7u
X67 GF_NI_DVDD_BASE_0.comp018green_esd_clamp_v5p0_DVDD_0/comp018green_esd_rc_v5p0_0.VRC.t6 DVSS.t17 cap_nmos_06v0 c_width=25u c_length=10u
X68 DVDD.t125 GF_NI_DVDD_BASE_0.comp018green_esd_clamp_v5p0_DVDD_0/pmos_6p0_CDNS_406619531456_0.D.t20 GF_NI_DVDD_BASE_0.comp018green_esd_clamp_v5p0_DVDD_0/pmos_6p0_CDNS_406619531455_0.D.t6 DVDD.t124 pfet_06v0 ad=1.3p pd=5.52u as=1.3p ps=5.52u w=5u l=0.7u
X69 DVDD.t68 GF_NI_DVDD_BASE_0.comp018green_esd_clamp_v5p0_DVDD_0/pmos_6p0_CDNS_406619531455_0.D.t53 DVSS.t107 DVSS.t106 nfet_06v0 ad=12.999999p pd=50.52u as=12.999999p ps=50.52u w=50u l=0.7u
X70 DVDD.t67 GF_NI_DVDD_BASE_0.comp018green_esd_clamp_v5p0_DVDD_0/pmos_6p0_CDNS_406619531455_0.D.t54 DVSS.t105 DVSS.t104 nfet_06v0 ad=12.999999p pd=50.52u as=12.999999p ps=50.52u w=50u l=0.7u
X71 DVDD.t66 GF_NI_DVDD_BASE_0.comp018green_esd_clamp_v5p0_DVDD_0/pmos_6p0_CDNS_406619531455_0.D.t55 DVSS.t103 DVSS.t102 nfet_06v0 ad=12.999999p pd=50.52u as=12.999999p ps=50.52u w=50u l=0.7u
X72 GF_NI_DVDD_BASE_0.comp018green_esd_clamp_v5p0_DVDD_0/pmos_6p0_CDNS_406619531455_0.D.t15 GF_NI_DVDD_BASE_0.comp018green_esd_clamp_v5p0_DVDD_0/pmos_6p0_CDNS_406619531456_0.D.t21 DVDD.t123 DVDD.t122 pfet_06v0 ad=1.3p pd=5.52u as=1.3p ps=5.52u w=5u l=0.7u
X73 DVSS.t187 GF_NI_DVDD_BASE_0.comp018green_esd_clamp_v5p0_DVDD_0/pmos_6p0_CDNS_406619531456_0.D.t22 GF_NI_DVDD_BASE_0.comp018green_esd_clamp_v5p0_DVDD_0/pmos_6p0_CDNS_406619531455_0.D.t1 DVSS.t186 nfet_06v0 ad=1.3p pd=5.52u as=1.3p ps=5.52u w=5u l=0.7u
X74 DVSS.t101 GF_NI_DVDD_BASE_0.comp018green_esd_clamp_v5p0_DVDD_0/pmos_6p0_CDNS_406619531455_0.D.t56 DVDD.t65 DVSS.t100 nfet_06v0 ad=12.999999p pd=50.52u as=12.999999p ps=50.52u w=50u l=0.7u
X75 GF_NI_DVDD_BASE_0.comp018green_esd_clamp_v5p0_DVDD_0/pmos_6p0_CDNS_406619531455_0.D.t1 GF_NI_DVDD_BASE_0.comp018green_esd_clamp_v5p0_DVDD_0/pmos_6p0_CDNS_406619531456_0.D.t23 DVSS.t185 DVSS.t184 nfet_06v0 ad=1.3p pd=5.52u as=1.3p ps=5.52u w=5u l=0.7u
X76 GF_NI_DVDD_BASE_0.comp018green_esd_clamp_v5p0_DVDD_0/comp018green_esd_rc_v5p0_0.ppolyf_u_CDNS_406619531453_3.MINUS.t1 GF_NI_DVDD_BASE_0.comp018green_esd_clamp_v5p0_DVDD_0/comp018green_esd_rc_v5p0_0.ppolyf_u_CDNS_406619531453_3.PLUS.t1 DVDD.t24 ppolyf_u r_width=0.8u r_length=63.854996u
X77 DVSS.t99 GF_NI_DVDD_BASE_0.comp018green_esd_clamp_v5p0_DVDD_0/pmos_6p0_CDNS_406619531455_0.D.t57 DVDD.t64 DVSS.t98 nfet_06v0 ad=12.999999p pd=50.52u as=12.999999p ps=50.52u w=50u l=0.7u
X78 DVDD.t63 GF_NI_DVDD_BASE_0.comp018green_esd_clamp_v5p0_DVDD_0/pmos_6p0_CDNS_406619531455_0.D.t58 DVSS.t97 DVSS.t96 nfet_06v0 ad=12.999999p pd=50.52u as=12.999999p ps=50.52u w=50u l=0.7u
X79 DVSS.t183 GF_NI_DVDD_BASE_0.comp018green_esd_clamp_v5p0_DVDD_0/pmos_6p0_CDNS_406619531456_0.D.t24 GF_NI_DVDD_BASE_0.comp018green_esd_clamp_v5p0_DVDD_0/pmos_6p0_CDNS_406619531455_0.D.t0 DVSS.t182 nfet_06v0 ad=2.2p pd=10.879999u as=1.3p ps=5.52u w=5u l=0.7u
X80 GF_NI_DVDD_BASE_0.comp018green_esd_clamp_v5p0_DVDD_0/comp018green_esd_rc_v5p0_0.ppolyf_u_CDNS_406619531453_4.MINUS.t1 GF_NI_DVDD_BASE_0.comp018green_esd_clamp_v5p0_DVDD_0/comp018green_esd_rc_v5p0_0.ppolyf_u_CDNS_406619531453_4.PLUS.t1 DVDD.t154 ppolyf_u r_width=0.8u r_length=63.854996u
X81 GF_NI_DVDD_BASE_0.comp018green_esd_clamp_v5p0_DVDD_0/comp018green_esd_rc_v5p0_0.VRC.t7 DVSS.t14 cap_nmos_06v0 c_width=25u c_length=10u
X82 GF_NI_DVDD_BASE_0.comp018green_esd_clamp_v5p0_DVDD_0/comp018green_esd_rc_v5p0_0.VRC.t8 DVSS.t15 cap_nmos_06v0 c_width=25u c_length=10u
X83 DVDD.t13 GF_NI_DVDD_BASE_0.comp018green_esd_clamp_v5p0_DVDD_0/pmos_6p0_CDNS_406619531452_0.D.t6 GF_NI_DVDD_BASE_0.comp018green_esd_clamp_v5p0_DVDD_0/pmos_6p0_CDNS_406619531456_0.D.t3 DVDD.t12 pfet_06v0 ad=1.3p pd=5.52u as=1.3p ps=5.52u w=5u l=0.7u
X84 DVDD.t62 GF_NI_DVDD_BASE_0.comp018green_esd_clamp_v5p0_DVDD_0/pmos_6p0_CDNS_406619531455_0.D.t59 DVSS.t95 DVSS.t94 nfet_06v0 ad=12.999999p pd=50.52u as=12.999999p ps=50.52u w=50u l=0.7u
X85 DVDD.t61 GF_NI_DVDD_BASE_0.comp018green_esd_clamp_v5p0_DVDD_0/pmos_6p0_CDNS_406619531455_0.D.t60 DVSS.t93 DVSS.t92 nfet_06v0 ad=12.999999p pd=50.52u as=12.999999p ps=50.52u w=50u l=0.7u
X86 DVDD.t60 GF_NI_DVDD_BASE_0.comp018green_esd_clamp_v5p0_DVDD_0/pmos_6p0_CDNS_406619531455_0.D.t61 DVSS.t91 DVSS.t90 nfet_06v0 ad=12.999999p pd=50.52u as=12.999999p ps=50.52u w=50u l=0.7u
X87 GF_NI_DVDD_BASE_0.comp018green_esd_clamp_v5p0_DVDD_0/comp018green_esd_rc_v5p0_0.ppolyf_u_CDNS_406619531453_4.MINUS.t0 GF_NI_DVDD_BASE_0.comp018green_esd_clamp_v5p0_DVDD_0/comp018green_esd_rc_v5p0_0.ppolyf_u_CDNS_406619531453_5.PLUS.t0 DVDD.t18 ppolyf_u r_width=0.8u r_length=63.854996u
X88 GF_NI_DVDD_BASE_0.comp018green_esd_clamp_v5p0_DVDD_0/pmos_6p0_CDNS_406619531456_0.D.t3 GF_NI_DVDD_BASE_0.comp018green_esd_clamp_v5p0_DVDD_0/pmos_6p0_CDNS_406619531452_0.D.t7 DVDD.t11 DVDD.t10 pfet_06v0 ad=1.3p pd=5.52u as=1.3p ps=5.52u w=5u l=0.7u
X89 GF_NI_DVDD_BASE_0.comp018green_esd_clamp_v5p0_DVDD_0/pmos_6p0_CDNS_406619531456_0.D.t0 GF_NI_DVDD_BASE_0.comp018green_esd_clamp_v5p0_DVDD_0/pmos_6p0_CDNS_406619531452_0.D.t8 DVSS.t19 DVSS.t18 nfet_06v0 ad=1.3p pd=5.52u as=1.3p ps=5.52u w=5u l=0.7u
X90 DVSS.t89 GF_NI_DVDD_BASE_0.comp018green_esd_clamp_v5p0_DVDD_0/pmos_6p0_CDNS_406619531455_0.D.t62 DVDD.t59 DVSS.t88 nfet_06v0 ad=12.999999p pd=50.52u as=12.999999p ps=50.52u w=50u l=0.7u
X91 DVSS.t4 GF_NI_DVDD_BASE_0.comp018green_esd_clamp_v5p0_DVDD_0/pmos_6p0_CDNS_406619531452_0.D.t9 GF_NI_DVDD_BASE_0.comp018green_esd_clamp_v5p0_DVDD_0/pmos_6p0_CDNS_406619531456_0.D.t0 DVSS.t3 nfet_06v0 ad=1.3p pd=5.52u as=1.3p ps=5.52u w=5u l=0.7u
X92 DVDD.t121 GF_NI_DVDD_BASE_0.comp018green_esd_clamp_v5p0_DVDD_0/pmos_6p0_CDNS_406619531456_0.D.t25 GF_NI_DVDD_BASE_0.comp018green_esd_clamp_v5p0_DVDD_0/pmos_6p0_CDNS_406619531455_0.D.t5 DVDD.t120 pfet_06v0 ad=1.3p pd=5.52u as=1.3p ps=5.52u w=5u l=0.7u
X93 GF_NI_DVDD_BASE_0.comp018green_esd_clamp_v5p0_DVDD_0/comp018green_esd_rc_v5p0_0.VRC.t9 DVSS.t16 cap_nmos_06v0 c_width=25u c_length=10u
X94 GF_NI_DVDD_BASE_0.comp018green_esd_clamp_v5p0_DVDD_0/comp018green_esd_rc_v5p0_0.VRC.t10 DVSS.t0 cap_nmos_06v0 c_width=25u c_length=10u
X95 DVDD.t58 GF_NI_DVDD_BASE_0.comp018green_esd_clamp_v5p0_DVDD_0/pmos_6p0_CDNS_406619531455_0.D.t63 DVSS.t87 DVSS.t86 nfet_06v0 ad=12.999999p pd=50.52u as=12.999999p ps=50.52u w=50u l=0.7u
X96 DVSS.t85 GF_NI_DVDD_BASE_0.comp018green_esd_clamp_v5p0_DVDD_0/pmos_6p0_CDNS_406619531455_0.D.t64 DVDD.t57 DVSS.t84 nfet_06v0 ad=12.999999p pd=50.52u as=12.999999p ps=50.52u w=50u l=0.7u
X97 GF_NI_DVDD_BASE_0.comp018green_esd_clamp_v5p0_DVDD_0/pmos_6p0_CDNS_406619531455_0.D.t9 GF_NI_DVDD_BASE_0.comp018green_esd_clamp_v5p0_DVDD_0/pmos_6p0_CDNS_406619531456_0.D.t26 DVDD.t119 DVDD.t118 pfet_06v0 ad=1.3p pd=5.52u as=1.3p ps=5.52u w=5u l=0.7u
X98 GF_NI_DVDD_BASE_0.comp018green_esd_clamp_v5p0_DVDD_0/pmos_6p0_CDNS_406619531455_0.D.t6 GF_NI_DVDD_BASE_0.comp018green_esd_clamp_v5p0_DVDD_0/pmos_6p0_CDNS_406619531456_0.D.t27 DVDD.t117 DVDD.t116 pfet_06v0 ad=1.3p pd=5.52u as=1.3p ps=5.52u w=5u l=0.7u
X99 DVDD.t56 GF_NI_DVDD_BASE_0.comp018green_esd_clamp_v5p0_DVDD_0/pmos_6p0_CDNS_406619531455_0.D.t65 DVSS.t83 DVSS.t82 nfet_06v0 ad=12.999999p pd=50.52u as=12.999999p ps=50.52u w=50u l=0.7u
X100 DVSS.t81 GF_NI_DVDD_BASE_0.comp018green_esd_clamp_v5p0_DVDD_0/pmos_6p0_CDNS_406619531455_0.D.t66 DVDD.t55 DVSS.t80 nfet_06v0 ad=12.999999p pd=50.52u as=12.999999p ps=50.52u w=50u l=0.7u
X101 DVSS.t79 GF_NI_DVDD_BASE_0.comp018green_esd_clamp_v5p0_DVDD_0/pmos_6p0_CDNS_406619531455_0.D.t67 DVDD.t54 DVSS.t78 nfet_06v0 ad=12.999999p pd=50.52u as=12.999999p ps=50.52u w=50u l=0.7u
X102 DVDD.t17 GF_NI_DVDD_BASE_0.comp018green_esd_clamp_v5p0_DVDD_0/comp018green_esd_rc_v5p0_0.ppolyf_u_CDNS_406619531453_2.PLUS.t0 DVDD.t16 ppolyf_u r_width=0.8u r_length=63.854996u
X103 DVSS.t77 GF_NI_DVDD_BASE_0.comp018green_esd_clamp_v5p0_DVDD_0/pmos_6p0_CDNS_406619531455_0.D.t68 DVDD.t53 DVSS.t76 nfet_06v0 ad=12.999999p pd=50.52u as=12.999999p ps=50.52u w=50u l=0.7u
X104 DVSS.t75 GF_NI_DVDD_BASE_0.comp018green_esd_clamp_v5p0_DVDD_0/pmos_6p0_CDNS_406619531455_0.D.t69 DVDD.t52 DVSS.t74 nfet_06v0 ad=12.999999p pd=50.52u as=21.999998p ps=0.10088m w=50u l=0.7u
X105 DVDD.t51 GF_NI_DVDD_BASE_0.comp018green_esd_clamp_v5p0_DVDD_0/pmos_6p0_CDNS_406619531455_0.D.t70 DVSS.t73 DVSS.t72 nfet_06v0 ad=21.999998p pd=0.10088m as=12.999999p ps=50.52u w=50u l=0.7u
X106 DVDD.t50 GF_NI_DVDD_BASE_0.comp018green_esd_clamp_v5p0_DVDD_0/pmos_6p0_CDNS_406619531455_0.D.t71 DVSS.t71 DVSS.t70 nfet_06v0 ad=12.999999p pd=50.52u as=12.999999p ps=50.52u w=50u l=0.7u
D1 DVSS.t192 DVDD.t159 diode_nd2ps_06v0 pj=82u area=40p
X107 GF_NI_DVDD_BASE_0.comp018green_esd_clamp_v5p0_DVDD_0/comp018green_esd_rc_v5p0_0.VRC.t11 DVSS.t1 cap_nmos_06v0 c_width=25u c_length=10u
X108 GF_NI_DVDD_BASE_0.comp018green_esd_clamp_v5p0_DVDD_0/pmos_6p0_CDNS_406619531455_0.D.t8 GF_NI_DVDD_BASE_0.comp018green_esd_clamp_v5p0_DVDD_0/pmos_6p0_CDNS_406619531456_0.D.t28 DVDD.t115 DVDD.t114 pfet_06v0 ad=1.3p pd=5.52u as=1.3p ps=5.52u w=5u l=0.7u
X109 DVDD.t49 GF_NI_DVDD_BASE_0.comp018green_esd_clamp_v5p0_DVDD_0/pmos_6p0_CDNS_406619531455_0.D.t72 DVSS.t69 DVSS.t68 nfet_06v0 ad=12.999999p pd=50.52u as=12.999999p ps=50.52u w=50u l=0.7u
X110 GF_NI_DVDD_BASE_0.comp018green_esd_clamp_v5p0_DVDD_0/pmos_6p0_CDNS_406619531455_0.D.t5 GF_NI_DVDD_BASE_0.comp018green_esd_clamp_v5p0_DVDD_0/pmos_6p0_CDNS_406619531456_0.D.t29 DVDD.t113 DVDD.t112 pfet_06v0 ad=1.3p pd=5.52u as=1.3p ps=5.52u w=5u l=0.7u
X111 DVSS.t67 GF_NI_DVDD_BASE_0.comp018green_esd_clamp_v5p0_DVDD_0/pmos_6p0_CDNS_406619531455_0.D.t73 DVDD.t48 DVSS.t66 nfet_06v0 ad=12.999999p pd=50.52u as=12.999999p ps=50.52u w=50u l=0.7u
X112 DVSS.t65 GF_NI_DVDD_BASE_0.comp018green_esd_clamp_v5p0_DVDD_0/pmos_6p0_CDNS_406619531455_0.D.t74 DVDD.t47 DVSS.t64 nfet_06v0 ad=12.999999p pd=50.52u as=12.999999p ps=50.52u w=50u l=0.7u
D2 DVSS.t192 DVDD.t160 diode_nd2ps_06v0 pj=82u area=40p
X113 DVDD.t111 GF_NI_DVDD_BASE_0.comp018green_esd_clamp_v5p0_DVDD_0/pmos_6p0_CDNS_406619531456_0.D.t30 GF_NI_DVDD_BASE_0.comp018green_esd_clamp_v5p0_DVDD_0/pmos_6p0_CDNS_406619531455_0.D.t7 DVDD.t110 pfet_06v0 ad=1.3p pd=5.52u as=1.3p ps=5.52u w=5u l=0.7u
X114 DVSS.t63 GF_NI_DVDD_BASE_0.comp018green_esd_clamp_v5p0_DVDD_0/pmos_6p0_CDNS_406619531455_0.D.t75 DVDD.t46 DVSS.t62 nfet_06v0 ad=12.999999p pd=50.52u as=21.999998p ps=0.10088m w=50u l=0.7u
X115 DVSS.t61 GF_NI_DVDD_BASE_0.comp018green_esd_clamp_v5p0_DVDD_0/pmos_6p0_CDNS_406619531455_0.D.t76 DVDD.t45 DVSS.t60 nfet_06v0 ad=12.999999p pd=50.52u as=12.999999p ps=50.52u w=50u l=0.7u
X116 DVDD.t109 GF_NI_DVDD_BASE_0.comp018green_esd_clamp_v5p0_DVDD_0/pmos_6p0_CDNS_406619531456_0.D.t31 GF_NI_DVDD_BASE_0.comp018green_esd_clamp_v5p0_DVDD_0/pmos_6p0_CDNS_406619531455_0.D.t4 DVDD.t108 pfet_06v0 ad=1.3p pd=5.52u as=1.3p ps=5.52u w=5u l=0.7u
X117 GF_NI_DVDD_BASE_0.comp018green_esd_clamp_v5p0_DVDD_0/comp018green_esd_rc_v5p0_0.ppolyf_u_CDNS_406619531453_3.MINUS.t0 GF_NI_DVDD_BASE_0.comp018green_esd_clamp_v5p0_DVDD_0/comp018green_esd_rc_v5p0_0.ppolyf_u_CDNS_406619531453_1.PLUS.t1 DVDD.t23 ppolyf_u r_width=0.8u r_length=63.854996u
X118 DVDD.t44 GF_NI_DVDD_BASE_0.comp018green_esd_clamp_v5p0_DVDD_0/pmos_6p0_CDNS_406619531455_0.D.t77 DVSS.t59 DVSS.t58 nfet_06v0 ad=12.999999p pd=50.52u as=12.999999p ps=50.52u w=50u l=0.7u
X119 DVDD.t43 GF_NI_DVDD_BASE_0.comp018green_esd_clamp_v5p0_DVDD_0/pmos_6p0_CDNS_406619531455_0.D.t78 DVSS.t57 DVSS.t56 nfet_06v0 ad=12.999999p pd=50.52u as=12.999999p ps=50.52u w=50u l=0.7u
X120 DVDD.t42 GF_NI_DVDD_BASE_0.comp018green_esd_clamp_v5p0_DVDD_0/pmos_6p0_CDNS_406619531455_0.D.t79 DVSS.t55 DVSS.t54 nfet_06v0 ad=12.999999p pd=50.52u as=12.999999p ps=50.52u w=50u l=0.7u
X121 DVDD.t161 DVSS.t193 cap_nmos_06v0 c_width=15u c_length=15u
X122 DVSS.t53 GF_NI_DVDD_BASE_0.comp018green_esd_clamp_v5p0_DVDD_0/pmos_6p0_CDNS_406619531455_0.D.t80 DVDD.t41 DVSS.t52 nfet_06v0 ad=12.999999p pd=50.52u as=12.999999p ps=50.52u w=50u l=0.7u
X123 DVSS.t51 GF_NI_DVDD_BASE_0.comp018green_esd_clamp_v5p0_DVDD_0/pmos_6p0_CDNS_406619531455_0.D.t81 DVDD.t40 DVSS.t50 nfet_06v0 ad=12.999999p pd=50.52u as=12.999999p ps=50.52u w=50u l=0.7u
X124 DVSS.t49 GF_NI_DVDD_BASE_0.comp018green_esd_clamp_v5p0_DVDD_0/pmos_6p0_CDNS_406619531455_0.D.t82 DVDD.t39 DVSS.t48 nfet_06v0 ad=12.999999p pd=50.52u as=12.999999p ps=50.52u w=50u l=0.7u
X125 DVSS.t47 GF_NI_DVDD_BASE_0.comp018green_esd_clamp_v5p0_DVDD_0/pmos_6p0_CDNS_406619531455_0.D.t83 DVDD.t38 DVSS.t46 nfet_06v0 ad=12.999999p pd=50.52u as=12.999999p ps=50.52u w=50u l=0.7u
X126 DVSS.t45 GF_NI_DVDD_BASE_0.comp018green_esd_clamp_v5p0_DVDD_0/pmos_6p0_CDNS_406619531455_0.D.t84 DVDD.t37 DVSS.t44 nfet_06v0 ad=12.999999p pd=50.52u as=12.999999p ps=50.52u w=50u l=0.7u
X127 GF_NI_DVDD_BASE_0.comp018green_esd_clamp_v5p0_DVDD_0/comp018green_esd_rc_v5p0_0.ppolyf_u_CDNS_406619531453_1.MINUS.t1 GF_NI_DVDD_BASE_0.comp018green_esd_clamp_v5p0_DVDD_0/comp018green_esd_rc_v5p0_0.ppolyf_u_CDNS_406619531453_1.PLUS.t0 DVDD.t22 ppolyf_u r_width=0.8u r_length=63.854996u
X128 DVDD.t36 GF_NI_DVDD_BASE_0.comp018green_esd_clamp_v5p0_DVDD_0/pmos_6p0_CDNS_406619531455_0.D.t85 DVSS.t43 DVSS.t42 nfet_06v0 ad=12.999999p pd=50.52u as=12.999999p ps=50.52u w=50u l=0.7u
X129 GF_NI_DVDD_BASE_0.comp018green_esd_clamp_v5p0_DVDD_0/pmos_6p0_CDNS_406619531456_0.D.t0 GF_NI_DVDD_BASE_0.comp018green_esd_clamp_v5p0_DVDD_0/pmos_6p0_CDNS_406619531452_0.D.t10 DVSS.t198 DVSS.t197 nfet_06v0 ad=1.3p pd=5.52u as=1.3p ps=5.52u w=5u l=0.7u
X130 DVDD.t35 GF_NI_DVDD_BASE_0.comp018green_esd_clamp_v5p0_DVDD_0/pmos_6p0_CDNS_406619531455_0.D.t86 DVSS.t41 DVSS.t40 nfet_06v0 ad=12.999999p pd=50.52u as=12.999999p ps=50.52u w=50u l=0.7u
X131 GF_NI_DVDD_BASE_0.comp018green_esd_clamp_v5p0_DVDD_0/comp018green_esd_rc_v5p0_0.ppolyf_u_CDNS_406619531453_5.MINUS.t1 GF_NI_DVDD_BASE_0.comp018green_esd_clamp_v5p0_DVDD_0/comp018green_esd_rc_v5p0_0.ppolyf_u_CDNS_406619531453_5.PLUS.t1 DVDD.t21 ppolyf_u r_width=0.8u r_length=63.854996u
X132 DVSS.t39 GF_NI_DVDD_BASE_0.comp018green_esd_clamp_v5p0_DVDD_0/pmos_6p0_CDNS_406619531455_0.D.t87 DVDD.t34 DVSS.t38 nfet_06v0 ad=12.999999p pd=50.52u as=12.999999p ps=50.52u w=50u l=0.7u
D3 DVSS.t192 DVDD.t162 diode_nd2ps_06v0 pj=82u area=40p
X133 GF_NI_DVDD_BASE_0.comp018green_esd_clamp_v5p0_DVDD_0/pmos_6p0_CDNS_406619531455_0.D.t0 GF_NI_DVDD_BASE_0.comp018green_esd_clamp_v5p0_DVDD_0/pmos_6p0_CDNS_406619531456_0.D.t32 DVSS.t181 DVSS.t180 nfet_06v0 ad=1.3p pd=5.52u as=1.3p ps=5.52u w=5u l=0.7u
X134 DVDD.t9 GF_NI_DVDD_BASE_0.comp018green_esd_clamp_v5p0_DVDD_0/comp018green_esd_rc_v5p0_0.VRC.t12 GF_NI_DVDD_BASE_0.comp018green_esd_clamp_v5p0_DVDD_0/pmos_6p0_CDNS_406619531452_0.D.t0 DVDD.t8 pfet_06v0 ad=1.3p pd=5.52u as=1.3p ps=5.52u w=5u l=0.7u
X135 GF_NI_DVDD_BASE_0.comp018green_esd_clamp_v5p0_DVDD_0/pmos_6p0_CDNS_406619531452_0.D.t0 GF_NI_DVDD_BASE_0.comp018green_esd_clamp_v5p0_DVDD_0/comp018green_esd_rc_v5p0_0.VRC.t13 DVDD.t1 DVDD.t0 pfet_06v0 ad=1.3p pd=5.52u as=2.2p ps=10.879999u w=5u l=0.7u
X136 DVSS.t37 GF_NI_DVDD_BASE_0.comp018green_esd_clamp_v5p0_DVDD_0/pmos_6p0_CDNS_406619531455_0.D.t88 DVDD.t33 DVSS.t36 nfet_06v0 ad=12.999999p pd=50.52u as=12.999999p ps=50.52u w=50u l=0.7u
X137 DVSS.t35 GF_NI_DVDD_BASE_0.comp018green_esd_clamp_v5p0_DVDD_0/pmos_6p0_CDNS_406619531455_0.D.t89 DVDD.t32 DVSS.t34 nfet_06v0 ad=12.999999p pd=50.52u as=12.999999p ps=50.52u w=50u l=0.7u
X138 DVSS.t33 GF_NI_DVDD_BASE_0.comp018green_esd_clamp_v5p0_DVDD_0/pmos_6p0_CDNS_406619531455_0.D.t90 DVDD.t31 DVSS.t32 nfet_06v0 ad=12.999999p pd=50.52u as=21.999998p ps=0.10088m w=50u l=0.7u
X139 GF_NI_DVDD_BASE_0.comp018green_esd_clamp_v5p0_DVDD_0/comp018green_esd_rc_v5p0_0.ppolyf_u_CDNS_406619531453_2.MINUS.t0 GF_NI_DVDD_BASE_0.comp018green_esd_clamp_v5p0_DVDD_0/comp018green_esd_rc_v5p0_0.ppolyf_u_CDNS_406619531453_2.PLUS.t1 DVDD.t20 ppolyf_u r_width=0.8u r_length=63.854996u