* NGSPICE file created from gf180mcu_fd_io__bi_t_pex.ext - technology: gf180mcuD

.subckt gf180mcu_fd_io__bi_t_pex DVSS DVDD PAD SL A Y PDRV1 PDRV0 PD CS OE IE PU VDD
+ VSS
X0 GF_NI_BI_T_BASE_0.comp018green_sigbuf_1_0.nmos_6p0_CDNS_4066195314530_0.D.t1 SL.t0 VSS.t23 VSS.t22 nfet_06v0 ad=0.66p pd=3.88u as=0.66p ps=3.88u w=1.5u l=0.7u
D0 CS.t0 VDD.t12 diode_pd2nw_06v0 pj=4u area=1p
X1 DVSS.t174 GF_NI_BI_T_BASE_0.comp018green_out_predrv_0.A.t2 GF_NI_BI_T_BASE_0.comp018green_out_predrv_2.nmos_6p0_CDNS_4066195314519_0.D.t2 DVSS.t173 nfet_06v0 ad=1.56p pd=6.52u as=2.64p ps=12.879999u w=6u l=0.7u
X2 GF_NI_BI_T_BASE_0.comp018green_inpath_cms_smt_0.comp018green_in_cms_smt_0.nmos_6p0_CDNS_4066195314536_1.S.t1 GF_NI_BI_T_BASE_0.comp018green_inpath_cms_smt_0.comp018green_sigbuf_3.Z.t1 DVDD.t58 DVDD.t57 pfet_06v0 ad=0.39p pd=2.02u as=0.66p ps=3.88u w=1.5u l=0.7u
X3 GF_NI_BI_T_BASE_0.comp018green_inpath_cms_smt_0.comp018green_in_logic_pupd_0.comp018green_std_nand2_1.nmos_6p0_CDNS_4066195314511_0.D.t1 GF_NI_BI_T_BASE_0.comp018green_inpath_cms_smt_0.comp018green_in_logic_pupd_0.comp018green_std_nand2_0.A.t2 GF_NI_BI_T_BASE_0.comp018green_inpath_cms_smt_0.comp018green_in_logic_pupd_0.PUB_OUT.t1 VSS.t8 nfet_06v0 ad=0.78p pd=3.52u as=1.32p ps=6.88u w=3u l=0.7u
X4 GF_NI_BI_T_BASE_0.comp018green_inpath_cms_smt_0.comp018green_in_pupd_0.ppolyf_u_CDNS_4066195314533_3.MINUS.t1 GF_NI_BI_T_BASE_0.comp018green_inpath_cms_smt_0.comp018green_in_pupd_0.ppolyf_u_CDNS_4066195314533_0.MINUS.t0 DVDD.t26 ppolyf_u r_width=0.8u r_length=35.7u
X5 GF_NI_BI_T_BASE_0.comp018green_inpath_cms_smt_0.comp018green_in_logic_pupd_0.PUB_OUT.t0 GF_NI_BI_T_BASE_0.comp018green_inpath_cms_smt_0.comp018green_in_logic_pupd_0.comp018green_std_nand2_0.A.t3 VDD.t5 VDD.t4 pfet_06v0 ad=0.78p pd=3.52u as=1.32p ps=6.88u w=3u l=0.7u
X6 GF_NI_BI_T_BASE_0.ndrive_y_<0>.t1 GF_NI_BI_T_BASE_0.comp018green_out_predrv_0.SL.t2 GF_NI_BI_T_BASE_0.ndrive_x_<0>.t0 DVDD.t25 pfet_06v0 ad=5.28p pd=24.88u as=3.12p ps=12.52u w=11.999999u l=0.7u
X7 DVDD.t194 GF_NI_BI_T_BASE_0.comp018green_inpath_cms_smt_0.comp018green_sigbuf_1.Z.t1 GF_NI_BI_T_BASE_0.comp018green_inpath_cms_smt_0.comp018green_sigbuf_1.ZB.t0 DVDD.t193 pfet_06v0 ad=1.32p pd=6.88u as=0.78p ps=3.52u w=3u l=0.7u
X8 GF_NI_BI_T_BASE_0.ndrive_x_<0>.t0 GF_NI_BI_T_BASE_0.comp018green_out_predrv_0.SL.t3 GF_NI_BI_T_BASE_0.ndrive_y_<0>.t0 DVDD.t22 pfet_06v0 ad=3.12p pd=12.52u as=3.12p ps=12.52u w=11.999999u l=0.7u
X9 GF_NI_BI_T_BASE_0.comp018green_inpath_cms_smt_0.comp018green_sigbuf_1.ZB.t0 GF_NI_BI_T_BASE_0.comp018green_inpath_cms_smt_0.comp018green_sigbuf_1.Z.t2 DVDD.t63 DVDD.t62 pfet_06v0 ad=0.78p pd=3.52u as=0.78p ps=3.52u w=3u l=0.7u
X10 GF_NI_BI_T_BASE_0.comp018green_inpath_cms_smt_0.comp018green_in_pupd_0.ppolyf_u_CDNS_4066195314532_0.PLUS PAD.t3 w_4468_53342# ppolyf_u r_width=2.5u r_length=2.8u
X11 PAD GF_NI_BI_T_BASE_0.pdrive_y_<0>.t4 DVDD DVDD.t195 pfet_06v0_dss d_sab=2.78u s_sab=0.28u ad=0.1112n pd=85.56u as=11.199999p ps=80.56u w=40u l=0.7u
X12 GF_NI_BI_T_BASE_0.pdrive_y_<1>.t0 DVDD.t205 GF_NI_BI_T_BASE_0.pdrive_x_<1>.t0 DVSS.t32 nfet_06v0 ad=0.528p pd=3.28u as=0.528p ps=3.28u w=1.2u l=0.7u
X13 GF_NI_BI_T_BASE_0.comp018green_inpath_cms_smt_0.comp018green_in_cms_smt_0.nmos_6p0_CDNS_4066195314540_0.S.t3 GF_NI_BI_T_BASE_0.comp018green_esd_cdm_0.IP_IN.t1 GF_NI_BI_T_BASE_0.comp018green_inpath_cms_smt_0.comp018green_in_cms_smt_0.nmos_6p0_CDNS_4066195314537_0.D.t4 DVSS.t5 nfet_06v0 ad=0.689p pd=3.17u as=0.689p ps=3.17u w=2.65u l=0.7u
X14 GF_NI_BI_T_BASE_0.ndrive_y_<0>.t4 DVSS.t206 GF_NI_BI_T_BASE_0.ndrive_x_<0>.t2 DVDD.t186 pfet_06v0 ad=0.528p pd=3.28u as=0.528p ps=3.28u w=1.2u l=0.7u
X15 PAD GF_NI_BI_T_BASE_0.ndrive_x_<1>.t3 DVSS DVSS.t117 nfet_06v0_dss d_sab=3.78u s_sab=0.28u ad=0.14364n pd=83.56u as=10.639999p ps=76.56u w=38u l=1.15u
X16 DVSS.t102 GF_NI_BI_T_BASE_0.comp018green_out_predrv_1.ENB.t2 GF_NI_BI_T_BASE_0.comp018green_out_predrv_1.nmos_6p0_CDNS_4066195314519_0.D.t2 DVSS.t101 nfet_06v0 ad=1.56p pd=6.52u as=1.56p ps=6.52u w=6u l=0.7u
X17 DVDD.t206 DVSS.t33 cap_nmos_06v0 c_width=5u c_length=1.5u
X18 GF_NI_BI_T_BASE_0.pdrive_x_<0>.t3 GF_NI_BI_T_BASE_0.comp018green_out_predrv_0.SLB.t2 GF_NI_BI_T_BASE_0.pdrive_y_<0>.t2 DVSS.t37 nfet_06v0 ad=2.64p pd=12.879999u as=1.56p ps=6.52u w=6u l=0.7u
X19 GF_NI_BI_T_BASE_0.comp018green_inpath_cms_smt_0.comp018green_in_cms_smt_0.nmos_6p0_CDNS_4066195314540_0.S.t2 GF_NI_BI_T_BASE_0.comp018green_esd_cdm_0.IP_IN.t2 GF_NI_BI_T_BASE_0.comp018green_inpath_cms_smt_0.comp018green_in_drv_0.A.t8 DVSS.t62 nfet_06v0 ad=1.32p pd=6.88u as=0.78p ps=3.52u w=3u l=0.7u
X20 PU.t1 GF_NI_BI_T_BASE_0.comp018green_inpath_cms_smt_0.comp018green_in_logic_pupd_0.comp018green_std_xor2_0.nmos_6p0_CDNS_4066195314530_0.D.t1 GF_NI_BI_T_BASE_0.comp018green_inpath_cms_smt_0.comp018green_in_logic_pupd_0.comp018green_std_nand2_0.A.t0 VSS.t15 nfet_06v0 ad=0.66p pd=3.88u as=0.66p ps=3.88u w=1.5u l=0.7u
X21 GF_NI_BI_T_BASE_0.comp018green_out_predrv_1.ENB.t1 GF_NI_BI_T_BASE_0.comp018green_out_predrv_1.EN.t1 DVDD.t188 DVDD.t187 pfet_06v0 ad=2.64p pd=12.879999u as=1.56p ps=6.52u w=6u l=0.7u
X22 VDD.t9 PU.t2 GF_NI_BI_T_BASE_0.comp018green_inpath_cms_smt_0.comp018green_in_logic_pupd_0.comp018green_std_xor2_0.nmos_6p0_CDNS_4066195314530_2.D.t0 VDD.t8 pfet_06v0 ad=1.32p pd=6.88u as=1.32p ps=6.88u w=3u l=0.7u
X23 GF_NI_BI_T_BASE_0.comp018green_inpath_cms_smt_0.comp018green_in_pupd_0.ppolyf_u_CDNS_4066195314532_0.PLUS PAD.t5 w_4468_53342# ppolyf_u r_width=2.5u r_length=2.8u
X24 DVSS.t127 GF_NI_BI_T_BASE_0.comp018green_inpath_cms_smt_0.comp018green_sigbuf_1.nmos_6p0_CDNS_4066195314530_0.D.t2 GF_NI_BI_T_BASE_0.comp018green_inpath_cms_smt_0.comp018green_sigbuf_1.Z.t0 DVSS.t126 nfet_06v0 ad=0.39p pd=2.02u as=0.39p ps=2.02u w=1.5u l=0.7u
X25 PAD GF_NI_BI_T_BASE_0.pdrive_x_<2>.t4 DVDD DVDD.t100 pfet_06v0_dss d_sab=2.78u s_sab=0.28u ad=0.1112n pd=85.56u as=11.199999p ps=80.56u w=40u l=0.7u
X26 GF_NI_BI_T_BASE_0.ndrive_x_<3>.t0 GF_NI_BI_T_BASE_0.comp018green_out_predrv_1.nmos_6p0_CDNS_4066195314519_2.S.t2 DVSS.t131 DVSS.t130 nfet_06v0 ad=1.56p pd=6.52u as=1.56p ps=6.52u w=6u l=0.7u
X27 GF_NI_BI_T_BASE_0.ndrive_Y_<1>.t2 GF_NI_BI_T_BASE_0.comp018green_out_predrv_3.nmos_6p0_CDNS_4066195314519_2.S.t2 DVDD.t203 DVDD.t202 pfet_06v0 ad=5.28p pd=24.88u as=3.12p ps=12.52u w=11.999999u l=0.7u
X28 GF_NI_BI_T_BASE_0.comp018green_inpath_cms_smt_0.comp018green_in_drv_0.A.t2 GF_NI_BI_T_BASE_0.comp018green_inpath_cms_smt_0.comp018green_sigbuf_1.Z.t3 DVDD.t192 DVDD.t191 pfet_06v0 ad=0.88p pd=4.88u as=0.52p ps=2.52u w=2u l=0.7u
X29 Y.t11 GF_NI_BI_T_BASE_0.comp018green_inpath_cms_smt_0.comp018green_in_drv_0.Z.t2 VSS.t28 VSS.t27 nfet_06v0 ad=0.39p pd=2.02u as=0.39p ps=2.02u w=1.5u l=0.7u
D1 GF_NI_BI_T_BASE_0.comp018green_inpath_cms_smt_0.comp018green_in_pupd_0.ppolyf_u_CDNS_4066195314532_0.PLUS DVDD diode_pd2nw_06v0 pj=42u area=20p
X30 GF_NI_BI_T_BASE_0.comp018green_out_sigbuf_oe_0.nmos_6p0_CDNS_4066195314511_1.S.t1 PDRV0.t1 VDD.t7 VDD.t6 pfet_06v0 ad=0.78p pd=3.52u as=1.32p ps=6.88u w=3u l=0.7u
X31 GF_NI_BI_T_BASE_0.comp018green_out_predrv_2.nmos_6p0_CDNS_4066195314519_2.S.t1 GF_NI_BI_T_BASE_0.comp018green_out_predrv_0.A.t3 DVDD.t157 DVDD.t156 pfet_06v0 ad=5.28p pd=24.88u as=3.12p ps=12.52u w=11.999999u l=0.7u
X32 DVSS.t203 GF_NI_BI_T_BASE_0.comp018green_out_predrv_1.nmos_6p0_CDNS_4066195314519_0.D.t3 GF_NI_BI_T_BASE_0.pdrive_y_<3>.t2 DVSS.t202 nfet_06v0 ad=1.56p pd=6.52u as=1.56p ps=6.52u w=6u l=0.7u
X33 a_5575_63014.t5 GF_NI_BI_T_BASE_0.comp018green_inpath_cms_smt_0.comp018green_in_cms_smt_0.nmos_6p0_CDNS_4066195314536_1.S.t3 DVSS.t59 DVDD.t18 pfet_06v0 ad=0.836p pd=4.68u as=0.494p ps=2.42u w=1.9u l=0.7u
X34 PAD GF_NI_BI_T_BASE_0.ndrive_x_<0>.t3 DVSS DVSS.t53 nfet_06v0_dss d_sab=3.78u s_sab=0.28u ad=0.14364n pd=83.56u as=10.639999p ps=76.56u w=38u l=1.15u
X35 DVSS.t160 GF_NI_BI_T_BASE_0.comp018green_out_predrv_1.nmos_6p0_CDNS_4066195314519_2.S.t3 GF_NI_BI_T_BASE_0.ndrive_Y_<3>.t2 DVSS.t159 nfet_06v0 ad=1.56p pd=6.52u as=1.56p ps=6.52u w=6u l=0.7u
X36 GF_NI_BI_T_BASE_0.comp018green_inpath_cms_smt_0.comp018green_sigbuf_0.nmos_6p0_CDNS_4066195314530_0.D.t0 GF_NI_BI_T_BASE_0.comp018green_inpath_cms_smt_0.comp018green_in_logic_pupd_0.PDB_OUT.t0 VDD.t14 VDD.t13 pfet_06v0 ad=1.32p pd=6.88u as=1.32p ps=6.88u w=3u l=0.7u
X37 DVSS.t58 GF_NI_BI_T_BASE_0.comp018green_inpath_cms_smt_0.comp018green_in_cms_smt_0.nmos_6p0_CDNS_4066195314536_1.S.t4 a_5575_63014.t4 DVDD.t17 pfet_06v0 ad=0.494p pd=2.42u as=0.836p ps=4.68u w=1.9u l=0.7u
X38 GF_NI_BI_T_BASE_0.comp018green_inpath_cms_smt_0.comp018green_in_pupd_0.ppolyf_u_CDNS_4066195314533_0.PLUS.t1 GF_NI_BI_T_BASE_0.comp018green_inpath_cms_smt_0.comp018green_in_pupd_0.ppolyf_u_CDNS_4066195314533_0.MINUS.t1 DVDD.t26 ppolyf_u r_width=0.8u r_length=35.7u
X39 GF_NI_BI_T_BASE_0.comp018green_out_predrv_0.SLB.t0 GF_NI_BI_T_BASE_0.comp018green_out_predrv_0.SL.t4 DVDD.t16 DVDD.t15 pfet_06v0 ad=0.78p pd=3.52u as=0.78p ps=3.52u w=3u l=0.7u
X40 DVDD.t120 GF_NI_BI_T_BASE_0.comp018green_out_sigbuf_oe_1.EN.t2 GF_NI_BI_T_BASE_0.comp018green_out_predrv_2.nmos_6p0_CDNS_4066195314519_2.S.t0 DVDD.t119 pfet_06v0 ad=3.12p pd=12.52u as=3.12p ps=12.52u w=11.999999u l=0.7u
X41 GF_NI_BI_T_BASE_0.comp018green_inpath_cms_smt_0.comp018green_sigbuf_3.Z GF_NI_BI_T_BASE_0.comp018green_inpath_cms_smt_0.comp018green_sigbuf_3.nmos_6p0_CDNS_4066195314530_0.D.t2 DVDD.t147 DVDD.t146 pfet_06v0 ad=0.78p pd=3.52u as=0.78p ps=3.52u w=3u l=0.7u
X42 GF_NI_BI_T_BASE_0.comp018green_inpath_cms_smt_0.comp018green_in_pupd_0.PD.t0 GF_NI_BI_T_BASE_0.comp018green_inpath_cms_smt_0.comp018green_sigbuf_0.Z.t2 DVDD.t163 DVDD.t162 pfet_06v0 ad=0.78p pd=3.52u as=0.78p ps=3.52u w=3u l=0.7u
X43 DVSS.t77 GF_NI_BI_T_BASE_0.comp018green_out_predrv_2.nmos_6p0_CDNS_4066195314519_2.S.t2 GF_NI_BI_T_BASE_0.ndrive_y_<2>.t3 DVSS.t76 nfet_06v0 ad=1.56p pd=6.52u as=1.56p ps=6.52u w=6u l=0.7u
X44 DVDD.t56 GF_NI_BI_T_BASE_0.comp018green_inpath_cms_smt_0.comp018green_sigbuf_3.Z.t2 GF_NI_BI_T_BASE_0.comp018green_inpath_cms_smt_0.comp018green_sigbuf_3.ZB.t0 DVDD.t55 pfet_06v0 ad=0.78p pd=3.52u as=0.78p ps=3.52u w=3u l=0.7u
X45 DVDD.t167 GF_NI_BI_T_BASE_0.comp018green_inpath_cms_smt_0.comp018green_sigbuf_0.nmos_6p0_CDNS_4066195314530_0.D.t2 GF_NI_BI_T_BASE_0.comp018green_inpath_cms_smt_0.comp018green_sigbuf_0.Z.t0 DVDD.t166 pfet_06v0 ad=0.78p pd=3.52u as=0.78p ps=3.52u w=3u l=0.7u
X46 PAD GF_NI_BI_T_BASE_0.pdrive_x_<3>.t4 DVDD DVDD.t176 pfet_06v0_dss d_sab=2.78u s_sab=0.28u ad=0.1112n pd=85.56u as=11.199999p ps=80.56u w=40u l=0.7u
X47 GF_NI_BI_T_BASE_0.comp018green_inpath_cms_smt_0.comp018green_sigbuf_1.nmos_6p0_CDNS_4066195314530_0.D.t0 IE.t0 VSS.t37 VSS.t36 nfet_06v0 ad=0.66p pd=3.88u as=0.66p ps=3.88u w=1.5u l=0.7u
X48 VDD.t27 GF_NI_BI_T_BASE_0.comp018green_inpath_cms_smt_0.comp018green_in_drv_0.Z.t3 Y.t5 VDD.t26 pfet_06v0 ad=0.91p pd=4.02u as=0.91p ps=4.02u w=3.5u l=0.7u
X49 Y.t4 GF_NI_BI_T_BASE_0.comp018green_inpath_cms_smt_0.comp018green_in_drv_0.Z.t4 VDD.t29 VDD.t28 pfet_06v0 ad=0.91p pd=4.02u as=1.54p ps=7.88u w=3.5u l=0.7u
X50 DVDD.t207 DVSS.t34 cap_nmos_06v0 c_width=5u c_length=1.5u
X51 DVSS.t133 GF_NI_BI_T_BASE_0.comp018green_inpath_cms_smt_0.comp018green_sigbuf_2.nmos_6p0_CDNS_4066195314530_0.D.t2 GF_NI_BI_T_BASE_0.comp018green_inpath_cms_smt_0.comp018green_in_pupd_0.PU_B.t1 DVSS.t132 nfet_06v0 ad=0.66p pd=3.88u as=0.39p ps=2.02u w=1.5u l=0.7u
D2 DVSS.t19 GF_NI_BI_T_BASE_0.comp018green_inpath_cms_smt_0.comp018green_in_pupd_0.ppolyf_u_CDNS_4066195314532_0.PLUS diode_nd2ps_06v0 pj=42u area=20p
X52 GF_NI_BI_T_BASE_0.pdrive_y_<1>.t2 GF_NI_BI_T_BASE_0.comp018green_out_predrv_3.nmos_6p0_CDNS_4066195314519_0.D.t3 DVSS.t151 DVSS.t150 nfet_06v0 ad=1.56p pd=6.52u as=2.64p ps=12.879999u w=6u l=0.7u
X53 DVDD.t171 GF_NI_BI_T_BASE_0.comp018green_out_predrv_0.nmos_6p0_CDNS_4066195314519_0.D.t3 GF_NI_BI_T_BASE_0.pdrive_x_<0>.t1 DVDD.t170 pfet_06v0 ad=5.28p pd=24.88u as=3.12p ps=12.52u w=11.999999u l=0.7u
X54 GF_NI_BI_T_BASE_0.comp018green_inpath_cms_smt_0.comp018green_sigbuf_0.Z.t1 GF_NI_BI_T_BASE_0.comp018green_inpath_cms_smt_0.comp018green_sigbuf_0.nmos_6p0_CDNS_4066195314530_0.D.t3 DVSS.t147 DVSS.t146 nfet_06v0 ad=0.39p pd=2.02u as=0.66p ps=3.88u w=1.5u l=0.7u
X55 GF_NI_BI_T_BASE_0.comp018green_inpath_cms_smt_0.comp018green_in_pupd_0.ppolyf_u_CDNS_4066195314533_5.MINUS.t1 GF_NI_BI_T_BASE_0.comp018green_inpath_cms_smt_0.comp018green_in_pupd_0.PU_B.t2 DVDD.t110 DVDD.t109 pfet_06v0 ad=1.32p pd=6.88u as=1.32p ps=6.88u w=3u l=0.7u
X56 DVDD.t42 GF_NI_BI_T_BASE_0.comp018green_out_predrv_2.nmos_6p0_CDNS_4066195314519_0.D.t3 GF_NI_BI_T_BASE_0.pdrive_y_<2>.t0 DVDD.t41 pfet_06v0 ad=3.12p pd=12.52u as=3.12p ps=12.52u w=11.999999u l=0.7u
X57 DVSS.t158 GF_NI_BI_T_BASE_0.comp018green_inpath_cms_smt_0.comp018green_in_cms_smt_0.nmos_6p0_CDNS_4066195314535_0.D.t2 GF_NI_BI_T_BASE_0.comp018green_inpath_cms_smt_0.comp018green_in_cms_smt_0.nmos_6p0_CDNS_4066195314530_0.D.t1 DVSS.t157 nfet_06v0 ad=0.66p pd=3.88u as=0.66p ps=3.88u w=1.5u l=0.7u
X58 DVSS.t166 GF_NI_BI_T_BASE_0.comp018green_out_sigbuf_a_0.nmos_6p0_CDNS_4066195314511_3.S.t2 GF_NI_BI_T_BASE_0.comp018green_out_predrv_0.A.t0 DVSS.t165 nfet_06v0 ad=0.78p pd=3.52u as=1.32p ps=6.88u w=3u l=0.7u
X59 DVSS.t189 GF_NI_BI_T_BASE_0.comp018green_out_predrv_0.nmos_6p0_CDNS_4066195314519_0.D.t4 GF_NI_BI_T_BASE_0.pdrive_y_<0>.t3 DVSS.t188 nfet_06v0 ad=2.64p pd=12.879999u as=1.56p ps=6.52u w=6u l=0.7u
X60 GF_NI_BI_T_BASE_0.pdrive_y_<0>.t3 GF_NI_BI_T_BASE_0.comp018green_out_predrv_0.nmos_6p0_CDNS_4066195314519_0.D.t5 DVSS.t191 DVSS.t190 nfet_06v0 ad=1.56p pd=6.52u as=1.56p ps=6.52u w=6u l=0.7u
X61 GF_NI_BI_T_BASE_0.comp018green_out_predrv_3.nmos_6p0_CDNS_4066195314519_2.S.t0 GF_NI_BI_T_BASE_0.comp018green_out_sigbuf_oe_1.EN.t3 DVDD.t128 DVDD.t127 pfet_06v0 ad=3.12p pd=12.52u as=3.12p ps=12.52u w=11.999999u l=0.7u
X62 DVDD.t112 GF_NI_BI_T_BASE_0.comp018green_inpath_cms_smt_0.comp018green_in_pupd_0.PU_B.t3 GF_NI_BI_T_BASE_0.comp018green_inpath_cms_smt_0.comp018green_sigbuf_2.ZB.t0 DVDD.t111 pfet_06v0 ad=0.78p pd=3.52u as=0.78p ps=3.52u w=3u l=0.7u
X63 GF_NI_BI_T_BASE_0.comp018green_inpath_cms_smt_0.comp018green_in_drv_0.A.t3 GF_NI_BI_T_BASE_0.comp018green_inpath_cms_smt_0.comp018green_sigbuf_3.Z.t3 GF_NI_BI_T_BASE_0.comp018green_inpath_cms_smt_0.comp018green_in_cms_smt_0.nmos_6p0_CDNS_4066195314536_1.S.t0 DVSS.t8 nfet_06v0 ad=0.66p pd=3.88u as=0.66p ps=3.88u w=1.5u l=0.7u
X64 GF_NI_BI_T_BASE_0.comp018green_inpath_cms_smt_0.comp018green_in_pupd_0.ppolyf_u_CDNS_4066195314533_1.PLUS.t0 GF_NI_BI_T_BASE_0.comp018green_inpath_cms_smt_0.comp018green_in_pupd_0.ppolyf_u_CDNS_4066195314533_1.MINUS.t0 DVDD.t26 ppolyf_u r_width=0.8u r_length=35.7u
X65 GF_NI_BI_T_BASE_0.comp018green_out_predrv_0.nmos_6p0_CDNS_4066195314519_2.S GF_NI_BI_T_BASE_0.comp018green_out_sigbuf_oe_0.EN.t2 GF_NI_BI_T_BASE_0.comp018green_out_predrv_0.nmos_6p0_CDNS_4066195314519_0.D.t0 DVSS.t80 nfet_06v0 ad=2.64p pd=12.879999u as=1.56p ps=6.52u w=6u l=0.7u
X66 DVDD.t143 GF_NI_BI_T_BASE_0.comp018green_out_predrv_1.nmos_6p0_CDNS_4066195314519_2.S.t4 GF_NI_BI_T_BASE_0.ndrive_Y_<3>.t1 DVDD.t142 pfet_06v0 ad=3.12p pd=12.52u as=3.12p ps=12.52u w=11.999999u l=0.7u
X67 DVDD.t136 GF_NI_BI_T_BASE_0.comp018green_out_predrv_3.nmos_6p0_CDNS_4066195314519_0.D.t4 GF_NI_BI_T_BASE_0.pdrive_y_<1>.t3 DVDD.t135 pfet_06v0 ad=5.28p pd=24.88u as=3.12p ps=12.52u w=11.999999u l=0.7u
X68 VDD.t64 CS.t1 GF_NI_BI_T_BASE_0.comp018green_inpath_cms_smt_0.comp018green_sigbuf_3.nmos_6p0_CDNS_4066195314530_0.D.t0 VDD.t63 pfet_06v0 ad=1.32p pd=6.88u as=1.32p ps=6.88u w=3u l=0.7u
X69 DVSS.t180 GF_NI_BI_T_BASE_0.comp018green_inpath_cms_smt_0.comp018green_sigbuf_0.Z.t3 GF_NI_BI_T_BASE_0.comp018green_inpath_cms_smt_0.comp018green_in_pupd_0.PD.t1 DVSS.t179 nfet_06v0 ad=0.66p pd=3.88u as=0.39p ps=2.02u w=1.5u l=0.7u
X70 GF_NI_BI_T_BASE_0.comp018green_inpath_cms_smt_0.comp018green_in_cms_smt_0.nmos_6p0_CDNS_4066195314540_0.S.t6 GF_NI_BI_T_BASE_0.comp018green_inpath_cms_smt_0.comp018green_in_cms_smt_0.nmos_6p0_CDNS_4066195314530_0.D.t2 DVDD.t182 DVSS.t196 nfet_06v0 ad=0.572p pd=3.48u as=0.572p ps=3.48u w=1.3u l=0.7u
X71 GF_NI_BI_T_BASE_0.ndrive_Y_<3>.t1 GF_NI_BI_T_BASE_0.comp018green_out_predrv_0.SL.t5 GF_NI_BI_T_BASE_0.ndrive_x_<3>.t1 DVDD.t21 pfet_06v0 ad=3.12p pd=12.52u as=3.12p ps=12.52u w=11.999999u l=0.7u
D3 IE.t1 VDD.t36 diode_pd2nw_06v0 pj=4u area=1p
X72 GF_NI_BI_T_BASE_0.comp018green_inpath_cms_smt_0.comp018green_sigbuf_2.ZB.t0 GF_NI_BI_T_BASE_0.comp018green_inpath_cms_smt_0.comp018green_in_pupd_0.PU_B.t4 DVDD.t114 DVDD.t113 pfet_06v0 ad=0.78p pd=3.52u as=1.32p ps=6.88u w=3u l=0.7u
X73 GF_NI_BI_T_BASE_0.comp018green_out_sigbuf_oe_2.nmos_6p0_CDNS_4066195314511_1.S.t0 OE.t3 GF_NI_BI_T_BASE_0.comp018green_out_sigbuf_oe_2.nmos_6p0_CDNS_4066195314511_0.S.t0 VSS.t41 nfet_06v0 ad=1.32p pd=6.88u as=0.78p ps=3.52u w=3u l=0.7u
X74 PAD GF_NI_BI_T_BASE_0.pdrive_y_<2>.t4 DVDD DVDD.t199 pfet_06v0_dss d_sab=2.78u s_sab=0.28u ad=0.1112n pd=85.56u as=11.199999p ps=80.56u w=40u l=0.7u
X75 GF_NI_BI_T_BASE_0.pdrive_x_<3>.t3 GF_NI_BI_T_BASE_0.comp018green_out_predrv_0.SLB.t3 GF_NI_BI_T_BASE_0.pdrive_y_<3>.t3 DVSS.t95 nfet_06v0 ad=2.64p pd=12.879999u as=1.56p ps=6.52u w=6u l=0.7u
X76 DVDD.t208 DVSS.t35 cap_nmos_06v0 c_width=5u c_length=1.5u
X77 GF_NI_BI_T_BASE_0.ndrive_x_<3>.t2 DVSS.t207 GF_NI_BI_T_BASE_0.ndrive_Y_<3>.t4 DVDD.t185 pfet_06v0 ad=0.528p pd=3.28u as=0.528p ps=3.28u w=1.2u l=0.7u
X78 GF_NI_BI_T_BASE_0.pdrive_y_<3>.t3 GF_NI_BI_T_BASE_0.comp018green_out_predrv_0.SLB.t4 GF_NI_BI_T_BASE_0.pdrive_x_<3>.t2 DVSS.t40 nfet_06v0 ad=1.56p pd=6.52u as=2.64p ps=12.879999u w=6u l=0.7u
X79 DVDD.t209 DVSS.t36 cap_nmos_06v0 c_width=5u c_length=1.5u
X80 GF_NI_BI_T_BASE_0.comp018green_inpath_cms_smt_0.comp018green_in_cms_smt_0.nmos_6p0_CDNS_4066195314537_0.D.t2 GF_NI_BI_T_BASE_0.comp018green_inpath_cms_smt_0.comp018green_sigbuf_1.Z.t4 DVSS.t116 DVSS.t115 nfet_06v0 ad=1.408p pd=7.28u as=0.832p ps=3.72u w=3.2u l=0.7u
X81 GF_NI_BI_T_BASE_0.comp018green_out_sigbuf_oe_2.nmos_6p0_CDNS_4066195314511_0.S.t1 VDD.t65 VSS.t1 VSS.t0 nfet_06v0 ad=0.78p pd=3.52u as=1.32p ps=6.88u w=3u l=0.7u
X82 GF_NI_BI_T_BASE_0.ndrive_y_<2>.t1 GF_NI_BI_T_BASE_0.comp018green_out_predrv_0.SL.t6 GF_NI_BI_T_BASE_0.ndrive_x_<2>.t0 DVDD.t19 pfet_06v0 ad=5.28p pd=24.88u as=3.12p ps=12.52u w=11.999999u l=0.7u
X83 VDD.t59 PDRV1.t1 GF_NI_BI_T_BASE_0.comp018green_out_sigbuf_oe_1.nmos_6p0_CDNS_4066195314511_1.S.t0 VDD.t58 pfet_06v0 ad=1.32p pd=6.88u as=0.78p ps=3.52u w=3u l=0.7u
X84 GF_NI_BI_T_BASE_0.comp018green_inpath_cms_smt_0.comp018green_in_logic_pupd_0.comp018green_std_nand2_0.A.t1 GF_NI_BI_T_BASE_0.comp018green_inpath_cms_smt_0.comp018green_in_logic_pupd_0.comp018green_std_xor2_0.nmos_6p0_CDNS_4066195314530_0.D.t2 GF_NI_BI_T_BASE_0.comp018green_inpath_cms_smt_0.comp018green_in_logic_pupd_0.comp018green_std_xor2_0.nmos_6p0_CDNS_4066195314530_2.D.t3 VDD.t32 pfet_06v0 ad=1.32p pd=6.88u as=1.32p ps=6.88u w=3u l=0.7u
X85 DVSS.t137 GF_NI_BI_T_BASE_0.comp018green_out_sigbuf_oe_1.EN.t4 GF_NI_BI_T_BASE_0.comp018green_out_sigbuf_oe_1.ENB.t1 DVSS.t136 nfet_06v0 ad=0.78p pd=3.52u as=1.32p ps=6.88u w=3u l=0.7u
X86 GF_NI_BI_T_BASE_0.pdrive_y_<0>.t1 GF_NI_BI_T_BASE_0.comp018green_out_predrv_0.nmos_6p0_CDNS_4066195314519_0.D.t6 DVDD.t70 DVDD.t69 pfet_06v0 ad=3.12p pd=12.52u as=5.28p ps=24.88u w=11.999999u l=0.7u
X87 GF_NI_BI_T_BASE_0.comp018green_out_sigbuf_oe_1.nmos_6p0_CDNS_4066195314511_1.S.t0 OE.t4 VDD.t53 VDD.t52 pfet_06v0 ad=0.78p pd=3.52u as=1.32p ps=6.88u w=3u l=0.7u
X88 VDD.t55 OE.t5 GF_NI_BI_T_BASE_0.comp018green_out_sigbuf_a_0.nmos_6p0_CDNS_4066195314511_1.D.t0 VDD.t54 pfet_06v0 ad=1.32p pd=6.88u as=0.78p ps=3.52u w=3u l=0.7u
X89 GF_NI_BI_T_BASE_0.comp018green_out_sigbuf_a_0.nmos_6p0_CDNS_4066195314511_1.D.t0 A.t0 VDD.t48 VDD.t47 pfet_06v0 ad=0.78p pd=3.52u as=1.32p ps=6.88u w=3u l=0.7u
X90 GF_NI_BI_T_BASE_0.pdrive_x_<0>.t0 DVDD.t210 GF_NI_BI_T_BASE_0.pdrive_y_<0>.t0 DVSS.t37 nfet_06v0 ad=0.528p pd=3.28u as=0.528p ps=3.28u w=1.2u l=0.7u
X91 DVDD.t211 DVSS.t38 cap_nmos_06v0 c_width=5u c_length=1.5u
X92 VSS.t12 PU.t3 GF_NI_BI_T_BASE_0.comp018green_inpath_cms_smt_0.comp018green_in_logic_pupd_0.comp018green_std_nand2_1.nmos_6p0_CDNS_4066195314511_0.D.t0 VSS.t11 nfet_06v0 ad=1.32p pd=6.88u as=0.78p ps=3.52u w=3u l=0.7u
X93 GF_NI_BI_T_BASE_0.comp018green_sigbuf_1_0.nmos_6p0_CDNS_4066195314530_0.D.t0 SL.t1 VDD.t21 VDD.t20 pfet_06v0 ad=1.32p pd=6.88u as=1.32p ps=6.88u w=3u l=0.7u
X94 DVSS GF_NI_BI_T_BASE_0.ndrive_Y_<3>.t5 PAD DVSS.t50 nfet_06v0_dss d_sab=0.28u s_sab=3.78u ad=10.639999p pd=76.56u as=0.14364n ps=83.56u w=38u l=1.15u
X95 VDD.t11 PU.t4 GF_NI_BI_T_BASE_0.comp018green_inpath_cms_smt_0.comp018green_in_logic_pupd_0.PUB_OUT.t0 VDD.t10 pfet_06v0 ad=1.32p pd=6.88u as=0.78p ps=3.52u w=3u l=0.7u
X96 GF_NI_BI_T_BASE_0.ndrive_Y_<1>.t3 GF_NI_BI_T_BASE_0.comp018green_out_predrv_3.nmos_6p0_CDNS_4066195314519_2.S.t3 DVSS.t110 DVSS.t109 nfet_06v0 ad=1.56p pd=6.52u as=1.56p ps=6.52u w=6u l=0.7u
X97 GF_NI_BI_T_BASE_0.comp018green_inpath_cms_smt_0.comp018green_in_drv_0.Z.t0 GF_NI_BI_T_BASE_0.comp018green_inpath_cms_smt_0.comp018green_in_drv_0.nmos_6p0_CDNS_4066195314547_0.S.t3 VDD.t42 VDD.t41 pfet_06v0 ad=0.65p pd=3.02u as=1.1p ps=5.88u w=2.5u l=0.7u
X98 DVDD GF_NI_BI_T_BASE_0.pdrive_y_<3>.t4 PAD DVDD.t64 pfet_06v0_dss d_sab=0.28u s_sab=2.78u ad=11.199999p pd=80.56u as=0.1112n ps=85.56u w=40u l=0.7u
X99 DVDD.t28 GF_NI_BI_T_BASE_0.comp018green_out_predrv_1.nmos_6p0_CDNS_4066195314519_0.D.t4 GF_NI_BI_T_BASE_0.pdrive_x_<3>.t1 DVDD.t27 pfet_06v0 ad=3.12p pd=12.52u as=3.12p ps=12.52u w=11.999999u l=0.7u
X100 GF_NI_BI_T_BASE_0.comp018green_inpath_cms_smt_0.comp018green_in_drv_0.nmos_6p0_CDNS_4066195314547_0.S.t2 GF_NI_BI_T_BASE_0.comp018green_inpath_cms_smt_0.comp018green_in_drv_0.A.t13 DVSS.t104 DVSS.t103 nfet_06v0 ad=1.76p pd=8.88u as=1.04p ps=4.52u w=4u l=0.7u
X101 GF_NI_BI_T_BASE_0.comp018green_inpath_cms_smt_0.comp018green_in_pupd_0.ppolyf_u_CDNS_4066195314533_0.PLUS.t0 GF_NI_BI_T_BASE_0.comp018green_inpath_cms_smt_0.comp018green_in_pupd_0.ppolyf_u_CDNS_4066195314533_1.MINUS.t1 DVDD.t26 ppolyf_u r_width=0.8u r_length=35.7u
X102 DVSS.t84 GF_NI_BI_T_BASE_0.comp018green_out_sigbuf_oe_1.ENB.t2 GF_NI_BI_T_BASE_0.comp018green_out_predrv_3.nmos_6p0_CDNS_4066195314519_0.D.t0 DVSS.t83 nfet_06v0 ad=1.56p pd=6.52u as=1.56p ps=6.52u w=6u l=0.7u
X103 GF_NI_BI_T_BASE_0.comp018green_out_predrv_1.nmos_6p0_CDNS_4066195314519_0.D.t1 GF_NI_BI_T_BASE_0.comp018green_out_predrv_1.ENB.t3 GF_NI_BI_T_BASE_0.comp018green_out_predrv_1.nmos_6p0_CDNS_4066195314519_2.S.t1 DVDD.t93 pfet_06v0 ad=5.28p pd=24.88u as=3.12p ps=12.52u w=11.999999u l=0.7u
X104 GF_NI_BI_T_BASE_0.pdrive_y_<1>.t3 GF_NI_BI_T_BASE_0.comp018green_out_predrv_3.nmos_6p0_CDNS_4066195314519_0.D.t5 DVDD.t138 DVDD.t137 pfet_06v0 ad=3.12p pd=12.52u as=3.12p ps=12.52u w=11.999999u l=0.7u
X105 GF_NI_BI_T_BASE_0.comp018green_inpath_cms_smt_0.comp018green_in_cms_smt_0.nmos_6p0_CDNS_4066195314540_0.S.t5 GF_NI_BI_T_BASE_0.comp018green_esd_cdm_0.IP_IN.t3 GF_NI_BI_T_BASE_0.comp018green_inpath_cms_smt_0.comp018green_in_cms_smt_0.nmos_6p0_CDNS_4066195314537_0.D.t6 DVSS.t16 nfet_06v0 ad=1.166p pd=6.18u as=0.689p ps=3.17u w=2.65u l=0.7u
X106 GF_NI_BI_T_BASE_0.comp018green_inpath_cms_smt_0.comp018green_in_drv_0.A.t7 GF_NI_BI_T_BASE_0.comp018green_esd_cdm_0.IP_IN.t4 GF_NI_BI_T_BASE_0.comp018green_inpath_cms_smt_0.comp018green_in_cms_smt_0.nmos_6p0_CDNS_4066195314540_0.S.t1 DVSS.t18 nfet_06v0 ad=0.78p pd=3.52u as=0.78p ps=3.52u w=3u l=0.7u
X107 GF_NI_BI_T_BASE_0.pdrive_x_<3>.t1 GF_NI_BI_T_BASE_0.comp018green_out_predrv_1.nmos_6p0_CDNS_4066195314519_0.D.t5 DVDD.t30 DVDD.t29 pfet_06v0 ad=3.12p pd=12.52u as=5.28p ps=24.88u w=11.999999u l=0.7u
X108 GF_NI_BI_T_BASE_0.comp018green_out_sigbuf_oe_0.nmos_6p0_CDNS_4066195314511_1.S.t0 OE.t6 GF_NI_BI_T_BASE_0.comp018green_out_sigbuf_oe_0.nmos_6p0_CDNS_4066195314511_0.S.t0 VSS.t24 nfet_06v0 ad=1.32p pd=6.88u as=0.78p ps=3.52u w=3u l=0.7u
X109 DVSS GF_NI_BI_T_BASE_0.ndrive_y_<0>.t5 PAD DVSS.t20 nfet_06v0_dss d_sab=0.28u s_sab=3.78u ad=10.639999p pd=76.56u as=0.14364n ps=83.56u w=38u l=1.15u
X110 DVDD.t212 DVSS.t39 cap_nmos_06v0 c_width=5u c_length=1.5u
X111 DVSS.t198 GF_NI_BI_T_BASE_0.comp018green_inpath_cms_smt_0.comp018green_sigbuf_3.nmos_6p0_CDNS_4066195314530_0.D.t3 GF_NI_BI_T_BASE_0.comp018green_inpath_cms_smt_0.comp018green_sigbuf_3.Z.t0 DVSS.t197 nfet_06v0 ad=0.66p pd=3.88u as=0.39p ps=2.02u w=1.5u l=0.7u
X112 VDD.t44 GF_NI_BI_T_BASE_0.comp018green_inpath_cms_smt_0.comp018green_in_drv_0.nmos_6p0_CDNS_4066195314547_0.S.t4 GF_NI_BI_T_BASE_0.comp018green_inpath_cms_smt_0.comp018green_in_drv_0.Z.t0 VDD.t43 pfet_06v0 ad=1.1p pd=5.88u as=0.65p ps=3.02u w=2.5u l=0.7u
D4 VSS.t50 OE.t2 diode_pd2nw_06v0 pj=1.92u area=0.2304p
X113 GF_NI_BI_T_BASE_0.comp018green_out_predrv_0.nmos_6p0_CDNS_4066195314519_2.S.t0 GF_NI_BI_T_BASE_0.comp018green_out_sigbuf_oe_0.ENB.t2 GF_NI_BI_T_BASE_0.comp018green_out_predrv_0.nmos_6p0_CDNS_4066195314519_0.D.t2 DVDD.t198 pfet_06v0 ad=3.12p pd=12.52u as=5.28p ps=24.88u w=11.999999u l=0.7u
X114 DVSS.t69 GF_NI_BI_T_BASE_0.comp018green_out_predrv_2.nmos_6p0_CDNS_4066195314519_0.D.t4 GF_NI_BI_T_BASE_0.pdrive_y_<2>.t1 DVSS.t68 nfet_06v0 ad=2.64p pd=12.879999u as=1.56p ps=6.52u w=6u l=0.7u
X115 GF_NI_BI_T_BASE_0.ndrive_y_<2>.t3 GF_NI_BI_T_BASE_0.comp018green_out_predrv_2.nmos_6p0_CDNS_4066195314519_2.S.t3 DVSS.t73 DVSS.t72 nfet_06v0 ad=1.56p pd=6.52u as=1.56p ps=6.52u w=6u l=0.7u
X116 DVDD.t60 GF_NI_BI_T_BASE_0.comp018green_inpath_cms_smt_0.comp018green_sigbuf_1.nmos_6p0_CDNS_4066195314530_0.D.t3 GF_NI_BI_T_BASE_0.comp018green_inpath_cms_smt_0.comp018green_sigbuf_1.Z DVDD.t59 pfet_06v0 ad=0.78p pd=3.52u as=0.78p ps=3.52u w=3u l=0.7u
X117 GF_NI_BI_T_BASE_0.pdrive_y_<2>.t1 GF_NI_BI_T_BASE_0.comp018green_out_predrv_2.nmos_6p0_CDNS_4066195314519_0.D.t5 DVSS.t67 DVSS.t66 nfet_06v0 ad=1.56p pd=6.52u as=1.56p ps=6.52u w=6u l=0.7u
X118 GF_NI_BI_T_BASE_0.comp018green_out_predrv_2.nmos_6p0_CDNS_4066195314519_2.S GF_NI_BI_T_BASE_0.comp018green_out_sigbuf_oe_1.EN.t5 GF_NI_BI_T_BASE_0.comp018green_out_predrv_2.nmos_6p0_CDNS_4066195314519_0.D.t0 DVSS.t138 nfet_06v0 ad=2.64p pd=12.879999u as=1.56p ps=6.52u w=6u l=0.7u
X119 DVDD.t54 GF_NI_BI_T_BASE_0.comp018green_inpath_cms_smt_0.comp018green_sigbuf_3.Z.t4 GF_NI_BI_T_BASE_0.comp018green_inpath_cms_smt_0.comp018green_in_cms_smt_0.nmos_6p0_CDNS_4066195314536_1.S.t1 DVDD.t53 pfet_06v0 ad=0.66p pd=3.88u as=0.39p ps=2.02u w=1.5u l=0.7u
X120 GF_NI_BI_T_BASE_0.comp018green_inpath_cms_smt_0.comp018green_in_cms_smt_0.nmos_6p0_CDNS_4066195314530_0.D.t0 GF_NI_BI_T_BASE_0.comp018green_inpath_cms_smt_0.comp018green_in_cms_smt_0.nmos_6p0_CDNS_4066195314535_0.D.t3 GF_NI_BI_T_BASE_0.comp018green_inpath_cms_smt_0.comp018green_in_drv_0.A.t11 DVDD.t141 pfet_06v0 ad=0.88p pd=4.88u as=0.88p ps=4.88u w=2u l=0.7u
X121 DVSS.t178 GF_NI_BI_T_BASE_0.comp018green_sigbuf_1_0.nmos_6p0_CDNS_4066195314530_0.D.t2 GF_NI_BI_T_BASE_0.comp018green_out_predrv_0.SL.t1 DVSS.t177 nfet_06v0 ad=0.39p pd=2.02u as=0.39p ps=2.02u w=1.5u l=0.7u
X122 GF_NI_BI_T_BASE_0.comp018green_inpath_cms_smt_0.comp018green_in_cms_smt_0.nmos_6p0_CDNS_4066195314537_0.D.t5 GF_NI_BI_T_BASE_0.comp018green_esd_cdm_0.IP_IN.t5 GF_NI_BI_T_BASE_0.comp018green_inpath_cms_smt_0.comp018green_in_cms_smt_0.nmos_6p0_CDNS_4066195314540_0.S.t4 DVSS.t17 nfet_06v0 ad=0.689p pd=3.17u as=1.166p ps=6.18u w=2.65u l=0.7u
X123 VDD.t31 GF_NI_BI_T_BASE_0.comp018green_inpath_cms_smt_0.comp018green_in_drv_0.Z.t5 Y.t3 VDD.t30 pfet_06v0 ad=0.91p pd=4.02u as=0.91p ps=4.02u w=3.5u l=0.7u
X124 GF_NI_BI_T_BASE_0.comp018green_inpath_cms_smt_0.comp018green_in_pupd_0.ppolyf_u_CDNS_4066195314533_1.PLUS.t1 GF_NI_BI_T_BASE_0.comp018green_inpath_cms_smt_0.comp018green_in_pupd_0.ppolyf_u_CDNS_4066195314533_2.PLUS.t1 DVDD.t26 ppolyf_u r_width=0.8u r_length=35.7u
X125 VSS.t14 PU.t5 GF_NI_BI_T_BASE_0.comp018green_inpath_cms_smt_0.comp018green_in_logic_pupd_0.comp018green_std_xor2_0.nmos_6p0_CDNS_4066195314530_2.D.t1 VSS.t13 nfet_06v0 ad=0.66p pd=3.88u as=0.66p ps=3.88u w=1.5u l=0.7u
X126 DVSS.t182 GF_NI_BI_T_BASE_0.comp018green_out_sigbuf_oe_2.nmos_6p0_CDNS_4066195314511_1.S.t2 GF_NI_BI_T_BASE_0.comp018green_out_predrv_1.EN DVSS.t181 nfet_06v0 ad=0.78p pd=3.52u as=1.32p ps=6.88u w=3u l=0.7u
X127 GF_NI_BI_T_BASE_0.pdrive_y_<0>.t2 GF_NI_BI_T_BASE_0.comp018green_out_predrv_0.SLB.t5 GF_NI_BI_T_BASE_0.pdrive_x_<0>.t2 DVSS.t98 nfet_06v0 ad=1.56p pd=6.52u as=2.64p ps=12.879999u w=6u l=0.7u
X128 DVDD GF_NI_BI_T_BASE_0.pdrive_x_<1>.t4 PAD DVDD.t85 pfet_06v0_dss d_sab=0.28u s_sab=2.78u ad=11.199999p pd=80.56u as=0.1112n ps=85.56u w=40u l=0.7u
X129 GF_NI_BI_T_BASE_0.ndrive_x_<1>.t1 GF_NI_BI_T_BASE_0.comp018green_out_predrv_0.SL.t7 GF_NI_BI_T_BASE_0.ndrive_Y_<1>.t1 DVDD.t20 pfet_06v0 ad=3.12p pd=12.52u as=5.28p ps=24.88u w=11.999999u l=0.7u
X130 GF_NI_BI_T_BASE_0.comp018green_inpath_cms_smt_0.comp018green_sigbuf_3.ZB.t1 GF_NI_BI_T_BASE_0.comp018green_inpath_cms_smt_0.comp018green_sigbuf_3.Z.t5 DVSS.t7 DVSS.t6 nfet_06v0 ad=0.39p pd=2.02u as=0.66p ps=3.88u w=1.5u l=0.7u
X131 VSS.t26 GF_NI_BI_T_BASE_0.comp018green_inpath_cms_smt_0.comp018green_in_drv_0.Z.t6 Y.t10 VSS.t25 nfet_06v0 ad=0.39p pd=2.02u as=0.39p ps=2.02u w=1.5u l=0.7u
X132 GF_NI_BI_T_BASE_0.comp018green_inpath_cms_smt_0.comp018green_in_pupd_0.PU_B.t1 GF_NI_BI_T_BASE_0.comp018green_inpath_cms_smt_0.comp018green_sigbuf_2.nmos_6p0_CDNS_4066195314530_0.D.t3 DVSS.t135 DVSS.t134 nfet_06v0 ad=0.39p pd=2.02u as=0.39p ps=2.02u w=1.5u l=0.7u
X133 Y.t9 GF_NI_BI_T_BASE_0.comp018green_inpath_cms_smt_0.comp018green_in_drv_0.Z.t7 VSS.t19 VSS.t18 nfet_06v0 ad=0.39p pd=2.02u as=0.66p ps=3.88u w=1.5u l=0.7u
X134 DVDD.t149 GF_NI_BI_T_BASE_0.comp018green_out_sigbuf_a_0.nmos_6p0_CDNS_4066195314511_3.S.t3 GF_NI_BI_T_BASE_0.comp018green_out_predrv_0.A.t1 DVDD.t148 pfet_06v0 ad=1.56p pd=6.52u as=2.64p ps=12.879999u w=6u l=0.7u
X135 GF_NI_BI_T_BASE_0.comp018green_out_predrv_1.nmos_6p0_CDNS_4066195314519_0.D.t2 GF_NI_BI_T_BASE_0.comp018green_out_predrv_1.EN.t2 GF_NI_BI_T_BASE_0.comp018green_out_predrv_1.nmos_6p0_CDNS_4066195314519_2.S DVSS.t199 nfet_06v0 ad=1.56p pd=6.52u as=2.64p ps=12.879999u w=6u l=0.7u