* NGSPICE file created from gf180mcu_fd_io__dvss_flat.ext - technology: gf180mcuD

.subckt gf180mcu_fd_io__dvss_flat VDD DVDD DVSS
X0 GF_NI_DVSS_BASE_0.comp018green_esd_clamp_v5p0_DVSS_0/comp018green_esd_rc_v5p0_0.ppolyf_u_CDNS_406619531453_5.MINUS.t1 GF_NI_DVSS_BASE_0.comp018green_esd_clamp_v5p0_DVSS_0/comp018green_esd_rc_v5p0_0.ppolyf_u_CDNS_406619531453_5.PLUS.t1 DVDD.t47 ppolyf_u r_width=0.8u r_length=63.854996u
X1 DVDD.t132 GF_NI_DVSS_BASE_0.comp018green_esd_clamp_v5p0_DVSS_0/pmos_6p0_CDNS_406619531455_0.D.t17 DVSS.t198 DVSS.t197 nfet_06v0 ad=12.999999p pd=50.52u as=12.999999p ps=50.52u w=50u l=0.7u
X2 GF_NI_DVSS_BASE_0.comp018green_esd_clamp_v5p0_DVSS_0/pmos_6p0_CDNS_406619531455_0.D.t7 GF_NI_DVSS_BASE_0.comp018green_esd_clamp_v5p0_DVSS_0/pmos_6p0_CDNS_406619531456_0.D.t4 DVSS.t32 DVSS.t31 nfet_06v0 ad=1.3p pd=5.52u as=1.3p ps=5.52u w=5u l=0.7u
X3 DVDD.t133 GF_NI_DVSS_BASE_0.comp018green_esd_clamp_v5p0_DVSS_0/pmos_6p0_CDNS_406619531455_0.D.t18 DVSS.t196 DVSS.t195 nfet_06v0 ad=12.999999p pd=50.52u as=12.999999p ps=50.52u w=50u l=0.7u
X4 DVDD.t134 GF_NI_DVSS_BASE_0.comp018green_esd_clamp_v5p0_DVSS_0/pmos_6p0_CDNS_406619531455_0.D.t19 DVSS.t194 DVSS.t193 nfet_06v0 ad=12.999999p pd=50.52u as=21.999998p ps=0.10088m w=50u l=0.7u
X5 DVSS.t15 GF_NI_DVSS_BASE_0.comp018green_esd_clamp_v5p0_DVSS_0/pmos_6p0_CDNS_406619531452_0.D.t3 GF_NI_DVSS_BASE_0.comp018green_esd_clamp_v5p0_DVSS_0/pmos_6p0_CDNS_406619531456_0.D.t2 DVSS.t14 nfet_06v0 ad=1.3p pd=5.52u as=1.3p ps=5.52u w=5u l=0.7u
X6 GF_NI_DVSS_BASE_0.comp018green_esd_clamp_v5p0_DVSS_0/comp018green_esd_rc_v5p0_0.ppolyf_u_CDNS_406619531453_2.MINUS.t0 GF_NI_DVSS_BASE_0.comp018green_esd_clamp_v5p0_DVSS_0/comp018green_esd_rc_v5p0_0.ppolyf_u_CDNS_406619531453_2.PLUS.t0 DVDD.t0 ppolyf_u r_width=0.8u r_length=63.854996u
X7 DVSS.t192 GF_NI_DVSS_BASE_0.comp018green_esd_clamp_v5p0_DVSS_0/pmos_6p0_CDNS_406619531455_0.D.t20 DVDD.t137 DVSS.t191 nfet_06v0 ad=21.999998p pd=0.10088m as=12.999999p ps=50.52u w=50u l=0.7u
X8 DVSS.t190 GF_NI_DVSS_BASE_0.comp018green_esd_clamp_v5p0_DVSS_0/pmos_6p0_CDNS_406619531455_0.D.t21 DVDD.t136 DVSS.t189 nfet_06v0 ad=12.999999p pd=50.52u as=12.999999p ps=50.52u w=50u l=0.7u
X9 DVDD.t4 GF_NI_DVSS_BASE_0.comp018green_esd_clamp_v5p0_DVSS_0/comp018green_esd_rc_v5p0_0.VRC.t1 GF_NI_DVSS_BASE_0.comp018green_esd_clamp_v5p0_DVSS_0/pmos_6p0_CDNS_406619531452_0.D.t0 DVDD.t3 pfet_06v0 ad=1.3p pd=5.52u as=1.3p ps=5.52u w=5u l=0.7u
X10 DVSS.t188 GF_NI_DVSS_BASE_0.comp018green_esd_clamp_v5p0_DVSS_0/pmos_6p0_CDNS_406619531455_0.D.t22 DVDD.t144 DVSS.t187 nfet_06v0 ad=12.999999p pd=50.52u as=12.999999p ps=50.52u w=50u l=0.7u
X11 GF_NI_DVSS_BASE_0.comp018green_esd_clamp_v5p0_DVSS_0/pmos_6p0_CDNS_406619531452_0.D.t0 GF_NI_DVSS_BASE_0.comp018green_esd_clamp_v5p0_DVSS_0/comp018green_esd_rc_v5p0_0.VRC.t2 DVDD.t31 DVDD.t30 pfet_06v0 ad=1.3p pd=5.52u as=1.3p ps=5.52u w=5u l=0.7u
X12 DVDD.t142 GF_NI_DVSS_BASE_0.comp018green_esd_clamp_v5p0_DVSS_0/pmos_6p0_CDNS_406619531455_0.D.t23 DVSS.t186 DVSS.t185 nfet_06v0 ad=12.999999p pd=50.52u as=12.999999p ps=50.52u w=50u l=0.7u
X13 DVSS.t184 GF_NI_DVSS_BASE_0.comp018green_esd_clamp_v5p0_DVSS_0/pmos_6p0_CDNS_406619531455_0.D.t24 DVDD.t101 DVSS.t183 nfet_06v0 ad=12.999999p pd=50.52u as=12.999999p ps=50.52u w=50u l=0.7u
X14 DVDD.t147 GF_NI_DVSS_BASE_0.comp018green_esd_clamp_v5p0_DVSS_0/pmos_6p0_CDNS_406619531455_0.D.t25 DVSS.t182 DVSS.t181 nfet_06v0 ad=12.999999p pd=50.52u as=12.999999p ps=50.52u w=50u l=0.7u
X15 DVDD.t155 DVSS.t30 cap_nmos_06v0 c_width=15u c_length=15u
X16 GF_NI_DVSS_BASE_0.comp018green_esd_clamp_v5p0_DVSS_0/comp018green_esd_rc_v5p0_0.ppolyf_u_CDNS_406619531453_2.MINUS.t1 GF_NI_DVSS_BASE_0.comp018green_esd_clamp_v5p0_DVSS_0/comp018green_esd_rc_v5p0_0.ppolyf_u_CDNS_406619531453_4.PLUS.t1 DVDD.t36 ppolyf_u r_width=0.8u r_length=63.854996u
X17 GF_NI_DVSS_BASE_0.comp018green_esd_clamp_v5p0_DVSS_0/pmos_6p0_CDNS_406619531455_0.D.t9 GF_NI_DVSS_BASE_0.comp018green_esd_clamp_v5p0_DVSS_0/pmos_6p0_CDNS_406619531456_0.D.t5 DVDD.t53 DVDD.t52 pfet_06v0 ad=1.3p pd=5.52u as=1.3p ps=5.52u w=5u l=0.7u
X18 DVSS.t180 GF_NI_DVSS_BASE_0.comp018green_esd_clamp_v5p0_DVSS_0/pmos_6p0_CDNS_406619531455_0.D.t26 DVDD.t149 DVSS.t179 nfet_06v0 ad=12.999999p pd=50.52u as=12.999999p ps=50.52u w=50u l=0.7u
X19 DVSS.t178 GF_NI_DVSS_BASE_0.comp018green_esd_clamp_v5p0_DVSS_0/pmos_6p0_CDNS_406619531455_0.D.t27 DVDD.t140 DVSS.t177 nfet_06v0 ad=12.999999p pd=50.52u as=12.999999p ps=50.52u w=50u l=0.7u
X20 GF_NI_DVSS_BASE_0.comp018green_esd_clamp_v5p0_DVSS_0/pmos_6p0_CDNS_406619531455_0.D.t8 GF_NI_DVSS_BASE_0.comp018green_esd_clamp_v5p0_DVSS_0/pmos_6p0_CDNS_406619531456_0.D.t6 DVDD.t55 DVDD.t54 pfet_06v0 ad=1.3p pd=5.52u as=1.3p ps=5.52u w=5u l=0.7u
X21 DVDD.t138 GF_NI_DVSS_BASE_0.comp018green_esd_clamp_v5p0_DVSS_0/pmos_6p0_CDNS_406619531455_0.D.t28 DVSS.t176 DVSS.t175 nfet_06v0 ad=12.999999p pd=50.52u as=12.999999p ps=50.52u w=50u l=0.7u
X22 DVDD.t139 GF_NI_DVSS_BASE_0.comp018green_esd_clamp_v5p0_DVSS_0/pmos_6p0_CDNS_406619531455_0.D.t29 DVSS.t174 DVSS.t173 nfet_06v0 ad=12.999999p pd=50.52u as=12.999999p ps=50.52u w=50u l=0.7u
X23 DVDD.t152 GF_NI_DVSS_BASE_0.comp018green_esd_clamp_v5p0_DVSS_0/pmos_6p0_CDNS_406619531455_0.D.t30 DVSS.t172 DVSS.t171 nfet_06v0 ad=12.999999p pd=50.52u as=12.999999p ps=50.52u w=50u l=0.7u
X24 DVDD.t154 GF_NI_DVSS_BASE_0.comp018green_esd_clamp_v5p0_DVSS_0/pmos_6p0_CDNS_406619531455_0.D.t31 DVSS.t170 DVSS.t169 nfet_06v0 ad=12.999999p pd=50.52u as=12.999999p ps=50.52u w=50u l=0.7u
D0 DVSS.t26 DVDD.t156 diode_nd2ps_06v0 pj=82u area=40p
X25 DVDD.t57 GF_NI_DVSS_BASE_0.comp018green_esd_clamp_v5p0_DVSS_0/pmos_6p0_CDNS_406619531456_0.D.t7 GF_NI_DVSS_BASE_0.comp018green_esd_clamp_v5p0_DVSS_0/pmos_6p0_CDNS_406619531455_0.D.t12 DVDD.t56 pfet_06v0 ad=1.3p pd=5.52u as=1.3p ps=5.52u w=5u l=0.7u
X26 DVSS.t168 GF_NI_DVSS_BASE_0.comp018green_esd_clamp_v5p0_DVSS_0/pmos_6p0_CDNS_406619531455_0.D.t32 DVDD.t111 DVSS.t167 nfet_06v0 ad=12.999999p pd=50.52u as=12.999999p ps=50.52u w=50u l=0.7u
X27 GF_NI_DVSS_BASE_0.comp018green_esd_clamp_v5p0_DVSS_0/pmos_6p0_CDNS_406619531455_0.D.t12 GF_NI_DVSS_BASE_0.comp018green_esd_clamp_v5p0_DVSS_0/pmos_6p0_CDNS_406619531456_0.D.t8 DVDD.t59 DVDD.t58 pfet_06v0 ad=1.3p pd=5.52u as=1.3p ps=5.52u w=5u l=0.7u
X28 DVSS.t166 GF_NI_DVSS_BASE_0.comp018green_esd_clamp_v5p0_DVSS_0/pmos_6p0_CDNS_406619531455_0.D.t33 DVDD.t92 DVSS.t165 nfet_06v0 ad=12.999999p pd=50.52u as=12.999999p ps=50.52u w=50u l=0.7u
X29 DVSS.t164 GF_NI_DVSS_BASE_0.comp018green_esd_clamp_v5p0_DVSS_0/pmos_6p0_CDNS_406619531455_0.D.t34 DVDD.t109 DVSS.t163 nfet_06v0 ad=12.999999p pd=50.52u as=12.999999p ps=50.52u w=50u l=0.7u
X30 DVDD.t157 DVSS.t29 cap_nmos_06v0 c_width=15u c_length=15u
X31 DVDD.t158 DVSS.t28 cap_nmos_06v0 c_width=15u c_length=15u
X32 DVDD.t61 GF_NI_DVSS_BASE_0.comp018green_esd_clamp_v5p0_DVSS_0/pmos_6p0_CDNS_406619531456_0.D.t9 GF_NI_DVSS_BASE_0.comp018green_esd_clamp_v5p0_DVSS_0/pmos_6p0_CDNS_406619531455_0.D.t13 DVDD.t60 pfet_06v0 ad=1.3p pd=5.52u as=1.3p ps=5.52u w=5u l=0.7u
X33 DVDD.t88 GF_NI_DVSS_BASE_0.comp018green_esd_clamp_v5p0_DVSS_0/pmos_6p0_CDNS_406619531455_0.D.t35 DVSS.t162 DVSS.t161 nfet_06v0 ad=12.999999p pd=50.52u as=12.999999p ps=50.52u w=50u l=0.7u
X34 DVDD.t102 GF_NI_DVSS_BASE_0.comp018green_esd_clamp_v5p0_DVSS_0/pmos_6p0_CDNS_406619531455_0.D.t36 DVSS.t160 DVSS.t159 nfet_06v0 ad=12.999999p pd=50.52u as=12.999999p ps=50.52u w=50u l=0.7u
X35 GF_NI_DVSS_BASE_0.comp018green_esd_clamp_v5p0_DVSS_0/comp018green_esd_rc_v5p0_0.ppolyf_u_CDNS_406619531453_1.MINUS.t1 GF_NI_DVSS_BASE_0.comp018green_esd_clamp_v5p0_DVSS_0/comp018green_esd_rc_v5p0_0.ppolyf_u_CDNS_406619531453_0.PLUS.t1 DVDD.t74 ppolyf_u r_width=0.8u r_length=63.854996u
X36 DVSS.t158 GF_NI_DVSS_BASE_0.comp018green_esd_clamp_v5p0_DVSS_0/pmos_6p0_CDNS_406619531455_0.D.t37 DVDD.t78 DVSS.t157 nfet_06v0 ad=21.999998p pd=0.10088m as=12.999999p ps=50.52u w=50u l=0.7u
X37 DVDD.t63 GF_NI_DVSS_BASE_0.comp018green_esd_clamp_v5p0_DVSS_0/pmos_6p0_CDNS_406619531456_0.D.t10 GF_NI_DVSS_BASE_0.comp018green_esd_clamp_v5p0_DVSS_0/pmos_6p0_CDNS_406619531455_0.D.t6 DVDD.t62 pfet_06v0 ad=1.3p pd=5.52u as=1.3p ps=5.52u w=5u l=0.7u
X38 DVDD.t79 GF_NI_DVSS_BASE_0.comp018green_esd_clamp_v5p0_DVSS_0/pmos_6p0_CDNS_406619531455_0.D.t38 DVSS.t156 DVSS.t155 nfet_06v0 ad=12.999999p pd=50.52u as=12.999999p ps=50.52u w=50u l=0.7u
X39 DVSS.t154 GF_NI_DVSS_BASE_0.comp018green_esd_clamp_v5p0_DVSS_0/pmos_6p0_CDNS_406619531455_0.D.t39 DVDD.t83 DVSS.t153 nfet_06v0 ad=12.999999p pd=50.52u as=12.999999p ps=50.52u w=50u l=0.7u
X40 DVDD.t65 GF_NI_DVSS_BASE_0.comp018green_esd_clamp_v5p0_DVSS_0/pmos_6p0_CDNS_406619531456_0.D.t11 GF_NI_DVSS_BASE_0.comp018green_esd_clamp_v5p0_DVSS_0/pmos_6p0_CDNS_406619531455_0.D.t14 DVDD.t64 pfet_06v0 ad=1.3p pd=5.52u as=1.3p ps=5.52u w=5u l=0.7u
X41 DVDD.t126 GF_NI_DVSS_BASE_0.comp018green_esd_clamp_v5p0_DVSS_0/pmos_6p0_CDNS_406619531455_0.D.t40 DVSS.t152 DVSS.t151 nfet_06v0 ad=12.999999p pd=50.52u as=12.999999p ps=50.52u w=50u l=0.7u
X42 GF_NI_DVSS_BASE_0.comp018green_esd_clamp_v5p0_DVSS_0/comp018green_esd_rc_v5p0_0.ppolyf_u_CDNS_406619531453_5.MINUS.t0 GF_NI_DVSS_BASE_0.comp018green_esd_clamp_v5p0_DVSS_0/comp018green_esd_rc_v5p0_0.ppolyf_u_CDNS_406619531453_3.PLUS.t0 DVDD.t35 ppolyf_u r_width=0.8u r_length=63.854996u
X43 GF_NI_DVSS_BASE_0.comp018green_esd_clamp_v5p0_DVSS_0/pmos_6p0_CDNS_406619531455_0.D.t14 GF_NI_DVSS_BASE_0.comp018green_esd_clamp_v5p0_DVSS_0/pmos_6p0_CDNS_406619531456_0.D.t12 DVDD.t67 DVDD.t66 pfet_06v0 ad=1.3p pd=5.52u as=2.2p ps=10.879999u w=5u l=0.7u
X44 DVDD.t127 GF_NI_DVSS_BASE_0.comp018green_esd_clamp_v5p0_DVSS_0/pmos_6p0_CDNS_406619531455_0.D.t41 DVSS.t150 DVSS.t149 nfet_06v0 ad=12.999999p pd=50.52u as=12.999999p ps=50.52u w=50u l=0.7u
X45 DVDD.t69 GF_NI_DVSS_BASE_0.comp018green_esd_clamp_v5p0_DVSS_0/pmos_6p0_CDNS_406619531456_0.D.t13 GF_NI_DVSS_BASE_0.comp018green_esd_clamp_v5p0_DVSS_0/pmos_6p0_CDNS_406619531455_0.D.t10 DVDD.t68 pfet_06v0 ad=1.3p pd=5.52u as=1.3p ps=5.52u w=5u l=0.7u
X46 DVSS.t34 GF_NI_DVSS_BASE_0.comp018green_esd_clamp_v5p0_DVSS_0/pmos_6p0_CDNS_406619531456_0.D.t14 GF_NI_DVSS_BASE_0.comp018green_esd_clamp_v5p0_DVSS_0/pmos_6p0_CDNS_406619531455_0.D.t15 DVSS.t33 nfet_06v0 ad=1.3p pd=5.52u as=1.3p ps=5.52u w=5u l=0.7u
X47 DVSS.t148 GF_NI_DVSS_BASE_0.comp018green_esd_clamp_v5p0_DVSS_0/pmos_6p0_CDNS_406619531455_0.D.t42 DVDD.t124 DVSS.t147 nfet_06v0 ad=12.999999p pd=50.52u as=12.999999p ps=50.52u w=50u l=0.7u
X48 GF_NI_DVSS_BASE_0.comp018green_esd_clamp_v5p0_DVSS_0/pmos_6p0_CDNS_406619531455_0.D.t16 GF_NI_DVSS_BASE_0.comp018green_esd_clamp_v5p0_DVSS_0/pmos_6p0_CDNS_406619531456_0.D.t15 DVSS.t36 DVSS.t35 nfet_06v0 ad=1.3p pd=5.52u as=1.3p ps=5.52u w=5u l=0.7u
X49 DVSS.t146 GF_NI_DVSS_BASE_0.comp018green_esd_clamp_v5p0_DVSS_0/pmos_6p0_CDNS_406619531455_0.D.t43 DVDD.t122 DVSS.t145 nfet_06v0 ad=12.999999p pd=50.52u as=12.999999p ps=50.52u w=50u l=0.7u
X50 GF_NI_DVSS_BASE_0.comp018green_esd_clamp_v5p0_DVSS_0/pmos_6p0_CDNS_406619531455_0.D.t11 GF_NI_DVSS_BASE_0.comp018green_esd_clamp_v5p0_DVSS_0/pmos_6p0_CDNS_406619531456_0.D.t16 DVDD.t71 DVDD.t70 pfet_06v0 ad=1.3p pd=5.52u as=1.3p ps=5.52u w=5u l=0.7u
X51 GF_NI_DVSS_BASE_0.comp018green_esd_clamp_v5p0_DVSS_0/pmos_6p0_CDNS_406619531452_0.D.t2 GF_NI_DVSS_BASE_0.comp018green_esd_clamp_v5p0_DVSS_0/comp018green_esd_rc_v5p0_0.VRC.t3 DVSS.t11 DVSS.t10 nfet_06v0 ad=2.2p pd=10.879999u as=2.2p ps=10.879999u w=5u l=0.7u
X52 GF_NI_DVSS_BASE_0.comp018green_esd_clamp_v5p0_DVSS_0/comp018green_esd_rc_v5p0_0.ppolyf_u_CDNS_406619531453_3.MINUS.t1 GF_NI_DVSS_BASE_0.comp018green_esd_clamp_v5p0_DVSS_0/comp018green_esd_rc_v5p0_0.ppolyf_u_CDNS_406619531453_3.PLUS.t1 DVDD.t42 ppolyf_u r_width=0.8u r_length=63.854996u
X53 DVDD.t106 GF_NI_DVSS_BASE_0.comp018green_esd_clamp_v5p0_DVSS_0/pmos_6p0_CDNS_406619531455_0.D.t44 DVSS.t144 DVSS.t143 nfet_06v0 ad=12.999999p pd=50.52u as=12.999999p ps=50.52u w=50u l=0.7u
X54 GF_NI_DVSS_BASE_0.comp018green_esd_clamp_v5p0_DVSS_0/pmos_6p0_CDNS_406619531456_0.D.t2 GF_NI_DVSS_BASE_0.comp018green_esd_clamp_v5p0_DVSS_0/pmos_6p0_CDNS_406619531452_0.D.t4 DVSS.t7 DVSS.t6 nfet_06v0 ad=1.3p pd=5.52u as=2.2p ps=10.879999u w=5u l=0.7u
X55 DVDD.t96 GF_NI_DVSS_BASE_0.comp018green_esd_clamp_v5p0_DVSS_0/pmos_6p0_CDNS_406619531455_0.D.t45 DVSS.t142 DVSS.t141 nfet_06v0 ad=12.999999p pd=50.52u as=12.999999p ps=50.52u w=50u l=0.7u
X56 DVDD.t104 GF_NI_DVSS_BASE_0.comp018green_esd_clamp_v5p0_DVSS_0/pmos_6p0_CDNS_406619531455_0.D.t46 DVSS.t140 DVSS.t139 nfet_06v0 ad=12.999999p pd=50.52u as=12.999999p ps=50.52u w=50u l=0.7u
X57 DVDD.t129 GF_NI_DVSS_BASE_0.comp018green_esd_clamp_v5p0_DVSS_0/pmos_6p0_CDNS_406619531455_0.D.t47 DVSS.t138 DVSS.t137 nfet_06v0 ad=12.999999p pd=50.52u as=12.999999p ps=50.52u w=50u l=0.7u
X58 GF_NI_DVSS_BASE_0.comp018green_esd_clamp_v5p0_DVSS_0/comp018green_esd_rc_v5p0_0.ppolyf_u_CDNS_406619531453_4.MINUS.t0 GF_NI_DVSS_BASE_0.comp018green_esd_clamp_v5p0_DVSS_0/comp018green_esd_rc_v5p0_0.ppolyf_u_CDNS_406619531453_4.PLUS.t0 DVDD.t34 ppolyf_u r_width=0.8u r_length=63.854996u
X59 DVSS.t136 GF_NI_DVSS_BASE_0.comp018green_esd_clamp_v5p0_DVSS_0/pmos_6p0_CDNS_406619531455_0.D.t48 DVDD.t130 DVSS.t135 nfet_06v0 ad=12.999999p pd=50.52u as=12.999999p ps=50.52u w=50u l=0.7u
X60 DVSS.t9 GF_NI_DVSS_BASE_0.comp018green_esd_clamp_v5p0_DVSS_0/pmos_6p0_CDNS_406619531452_0.D.t5 GF_NI_DVSS_BASE_0.comp018green_esd_clamp_v5p0_DVSS_0/pmos_6p0_CDNS_406619531456_0.D.t1 DVSS.t8 nfet_06v0 ad=1.3p pd=5.52u as=1.3p ps=5.52u w=5u l=0.7u
X61 DVDD.t15 GF_NI_DVSS_BASE_0.comp018green_esd_clamp_v5p0_DVSS_0/pmos_6p0_CDNS_406619531452_0.D.t6 GF_NI_DVSS_BASE_0.comp018green_esd_clamp_v5p0_DVSS_0/pmos_6p0_CDNS_406619531456_0.D.t0 DVDD.t14 pfet_06v0 ad=1.3p pd=5.52u as=1.3p ps=5.52u w=5u l=0.7u
X62 DVSS.t134 GF_NI_DVSS_BASE_0.comp018green_esd_clamp_v5p0_DVSS_0/pmos_6p0_CDNS_406619531455_0.D.t49 DVDD.t84 DVSS.t133 nfet_06v0 ad=12.999999p pd=50.52u as=12.999999p ps=50.52u w=50u l=0.7u
X63 DVSS.t132 GF_NI_DVSS_BASE_0.comp018green_esd_clamp_v5p0_DVSS_0/pmos_6p0_CDNS_406619531455_0.D.t50 DVDD.t116 DVSS.t131 nfet_06v0 ad=12.999999p pd=50.52u as=12.999999p ps=50.52u w=50u l=0.7u
X64 DVSS.t130 GF_NI_DVSS_BASE_0.comp018green_esd_clamp_v5p0_DVSS_0/pmos_6p0_CDNS_406619531455_0.D.t51 DVDD.t115 DVSS.t129 nfet_06v0 ad=12.999999p pd=50.52u as=12.999999p ps=50.52u w=50u l=0.7u
X65 DVSS.t128 GF_NI_DVSS_BASE_0.comp018green_esd_clamp_v5p0_DVSS_0/pmos_6p0_CDNS_406619531455_0.D.t52 DVDD.t123 DVSS.t127 nfet_06v0 ad=12.999999p pd=50.52u as=12.999999p ps=50.52u w=50u l=0.7u
X66 DVSS.t126 GF_NI_DVSS_BASE_0.comp018green_esd_clamp_v5p0_DVSS_0/pmos_6p0_CDNS_406619531455_0.D.t53 DVDD.t128 DVSS.t125 nfet_06v0 ad=12.999999p pd=50.52u as=12.999999p ps=50.52u w=50u l=0.7u
X67 GF_NI_DVSS_BASE_0.comp018green_esd_clamp_v5p0_DVSS_0/pmos_6p0_CDNS_406619531456_0.D.t0 GF_NI_DVSS_BASE_0.comp018green_esd_clamp_v5p0_DVSS_0/pmos_6p0_CDNS_406619531452_0.D.t7 DVDD.t29 DVDD.t28 pfet_06v0 ad=1.3p pd=5.52u as=1.3p ps=5.52u w=5u l=0.7u
X68 DVDD.t17 GF_NI_DVSS_BASE_0.comp018green_esd_clamp_v5p0_DVSS_0/pmos_6p0_CDNS_406619531456_0.D.t17 GF_NI_DVSS_BASE_0.comp018green_esd_clamp_v5p0_DVSS_0/pmos_6p0_CDNS_406619531455_0.D.t1 DVDD.t16 pfet_06v0 ad=1.3p pd=5.52u as=1.3p ps=5.52u w=5u l=0.7u
X69 DVDD.t131 GF_NI_DVSS_BASE_0.comp018green_esd_clamp_v5p0_DVSS_0/pmos_6p0_CDNS_406619531455_0.D.t54 DVSS.t124 DVSS.t123 nfet_06v0 ad=12.999999p pd=50.52u as=12.999999p ps=50.52u w=50u l=0.7u
X70 DVDD.t93 GF_NI_DVSS_BASE_0.comp018green_esd_clamp_v5p0_DVSS_0/pmos_6p0_CDNS_406619531455_0.D.t55 DVSS.t122 DVSS.t121 nfet_06v0 ad=12.999999p pd=50.52u as=12.999999p ps=50.52u w=50u l=0.7u
X71 DVSS.t120 GF_NI_DVSS_BASE_0.comp018green_esd_clamp_v5p0_DVSS_0/pmos_6p0_CDNS_406619531455_0.D.t56 DVDD.t95 DVSS.t119 nfet_06v0 ad=12.999999p pd=50.52u as=12.999999p ps=50.52u w=50u l=0.7u
X72 GF_NI_DVSS_BASE_0.comp018green_esd_clamp_v5p0_DVSS_0/pmos_6p0_CDNS_406619531455_0.D.t5 GF_NI_DVSS_BASE_0.comp018green_esd_clamp_v5p0_DVSS_0/pmos_6p0_CDNS_406619531456_0.D.t18 DVDD.t19 DVDD.t18 pfet_06v0 ad=1.3p pd=5.52u as=1.3p ps=5.52u w=5u l=0.7u
X73 GF_NI_DVSS_BASE_0.comp018green_esd_clamp_v5p0_DVSS_0/comp018green_esd_rc_v5p0_0.VRC.t4 DVSS.t21 cap_nmos_06v0 c_width=25u c_length=10u
X74 GF_NI_DVSS_BASE_0.comp018green_esd_clamp_v5p0_DVSS_0/pmos_6p0_CDNS_406619531455_0.D.t10 GF_NI_DVSS_BASE_0.comp018green_esd_clamp_v5p0_DVSS_0/pmos_6p0_CDNS_406619531456_0.D.t19 DVDD.t49 DVDD.t48 pfet_06v0 ad=1.3p pd=5.52u as=1.3p ps=5.52u w=5u l=0.7u
X75 DVSS.t118 GF_NI_DVSS_BASE_0.comp018green_esd_clamp_v5p0_DVSS_0/pmos_6p0_CDNS_406619531455_0.D.t57 DVDD.t87 DVSS.t117 nfet_06v0 ad=12.999999p pd=50.52u as=12.999999p ps=50.52u w=50u l=0.7u
X76 DVSS.t116 GF_NI_DVSS_BASE_0.comp018green_esd_clamp_v5p0_DVSS_0/pmos_6p0_CDNS_406619531455_0.D.t58 DVDD.t86 DVSS.t115 nfet_06v0 ad=12.999999p pd=50.52u as=12.999999p ps=50.52u w=50u l=0.7u
X77 DVSS.t114 GF_NI_DVSS_BASE_0.comp018green_esd_clamp_v5p0_DVSS_0/pmos_6p0_CDNS_406619531455_0.D.t59 DVDD.t90 DVSS.t113 nfet_06v0 ad=12.999999p pd=50.52u as=12.999999p ps=50.52u w=50u l=0.7u
X78 GF_NI_DVSS_BASE_0.comp018green_esd_clamp_v5p0_DVSS_0/comp018green_esd_rc_v5p0_0.VRC.t0 GF_NI_DVSS_BASE_0.comp018green_esd_clamp_v5p0_DVSS_0/comp018green_esd_rc_v5p0_0.ppolyf_u_CDNS_406619531453_0.PLUS.t0 DVDD.t46 ppolyf_u r_width=0.8u r_length=63.854996u
X79 DVDD.t85 GF_NI_DVSS_BASE_0.comp018green_esd_clamp_v5p0_DVSS_0/pmos_6p0_CDNS_406619531455_0.D.t60 DVSS.t112 DVSS.t111 nfet_06v0 ad=12.999999p pd=50.52u as=12.999999p ps=50.52u w=50u l=0.7u
X80 DVDD.t94 GF_NI_DVSS_BASE_0.comp018green_esd_clamp_v5p0_DVSS_0/pmos_6p0_CDNS_406619531455_0.D.t61 DVSS.t110 DVSS.t109 nfet_06v0 ad=12.999999p pd=50.52u as=12.999999p ps=50.52u w=50u l=0.7u
X81 GF_NI_DVSS_BASE_0.comp018green_esd_clamp_v5p0_DVSS_0/comp018green_esd_rc_v5p0_0.VRC.t5 DVSS.t22 cap_nmos_06v0 c_width=25u c_length=10u
X82 GF_NI_DVSS_BASE_0.comp018green_esd_clamp_v5p0_DVSS_0/comp018green_esd_rc_v5p0_0.VRC.t6 DVSS.t0 cap_nmos_06v0 c_width=25u c_length=10u
X83 DVDD.t81 GF_NI_DVSS_BASE_0.comp018green_esd_clamp_v5p0_DVSS_0/pmos_6p0_CDNS_406619531455_0.D.t62 DVSS.t108 DVSS.t107 nfet_06v0 ad=12.999999p pd=50.52u as=12.999999p ps=50.52u w=50u l=0.7u
X84 DVSS.t106 GF_NI_DVSS_BASE_0.comp018green_esd_clamp_v5p0_DVSS_0/pmos_6p0_CDNS_406619531455_0.D.t63 DVDD.t91 DVSS.t105 nfet_06v0 ad=12.999999p pd=50.52u as=12.999999p ps=50.52u w=50u l=0.7u
X85 DVDD.t82 GF_NI_DVSS_BASE_0.comp018green_esd_clamp_v5p0_DVSS_0/pmos_6p0_CDNS_406619531455_0.D.t64 DVSS.t104 DVSS.t103 nfet_06v0 ad=12.999999p pd=50.52u as=21.999998p ps=0.10088m w=50u l=0.7u
X86 DVSS.t102 GF_NI_DVSS_BASE_0.comp018green_esd_clamp_v5p0_DVSS_0/pmos_6p0_CDNS_406619531455_0.D.t65 DVDD.t77 DVSS.t101 nfet_06v0 ad=21.999998p pd=0.10088m as=12.999999p ps=50.52u w=50u l=0.7u
X87 DVSS.t100 GF_NI_DVSS_BASE_0.comp018green_esd_clamp_v5p0_DVSS_0/pmos_6p0_CDNS_406619531455_0.D.t66 DVDD.t76 DVSS.t99 nfet_06v0 ad=12.999999p pd=50.52u as=12.999999p ps=50.52u w=50u l=0.7u
X88 DVSS.t98 GF_NI_DVSS_BASE_0.comp018green_esd_clamp_v5p0_DVSS_0/pmos_6p0_CDNS_406619531455_0.D.t67 DVDD.t75 DVSS.t97 nfet_06v0 ad=21.999998p pd=0.10088m as=12.999999p ps=50.52u w=50u l=0.7u
X89 GF_NI_DVSS_BASE_0.comp018green_esd_clamp_v5p0_DVSS_0/pmos_6p0_CDNS_406619531455_0.D.t0 GF_NI_DVSS_BASE_0.comp018green_esd_clamp_v5p0_DVSS_0/pmos_6p0_CDNS_406619531456_0.D.t20 DVDD.t6 DVDD.t5 pfet_06v0 ad=1.3p pd=5.52u as=1.3p ps=5.52u w=5u l=0.7u
X90 GF_NI_DVSS_BASE_0.comp018green_esd_clamp_v5p0_DVSS_0/pmos_6p0_CDNS_406619531455_0.D.t1 GF_NI_DVSS_BASE_0.comp018green_esd_clamp_v5p0_DVSS_0/pmos_6p0_CDNS_406619531456_0.D.t21 DVDD.t8 DVDD.t7 pfet_06v0 ad=1.3p pd=5.52u as=1.3p ps=5.52u w=5u l=0.7u
X91 DVSS.t96 GF_NI_DVSS_BASE_0.comp018green_esd_clamp_v5p0_DVSS_0/pmos_6p0_CDNS_406619531455_0.D.t68 DVDD.t100 DVSS.t95 nfet_06v0 ad=12.999999p pd=50.52u as=12.999999p ps=50.52u w=50u l=0.7u
X92 DVSS.t94 GF_NI_DVSS_BASE_0.comp018green_esd_clamp_v5p0_DVSS_0/pmos_6p0_CDNS_406619531455_0.D.t69 DVDD.t98 DVSS.t93 nfet_06v0 ad=12.999999p pd=50.52u as=12.999999p ps=50.52u w=50u l=0.7u
X93 DVSS.t3 GF_NI_DVSS_BASE_0.comp018green_esd_clamp_v5p0_DVSS_0/pmos_6p0_CDNS_406619531456_0.D.t22 GF_NI_DVSS_BASE_0.comp018green_esd_clamp_v5p0_DVSS_0/pmos_6p0_CDNS_406619531455_0.D.t4 DVSS.t2 nfet_06v0 ad=1.3p pd=5.52u as=1.3p ps=5.52u w=5u l=0.7u
X94 GF_NI_DVSS_BASE_0.comp018green_esd_clamp_v5p0_DVSS_0/pmos_6p0_CDNS_406619531455_0.D.t4 GF_NI_DVSS_BASE_0.comp018green_esd_clamp_v5p0_DVSS_0/pmos_6p0_CDNS_406619531456_0.D.t23 DVSS.t38 DVSS.t37 nfet_06v0 ad=1.3p pd=5.52u as=1.3p ps=5.52u w=5u l=0.7u
X95 DVDD.t73 GF_NI_DVSS_BASE_0.comp018green_esd_clamp_v5p0_DVSS_0/pmos_6p0_CDNS_406619531456_0.D.t24 GF_NI_DVSS_BASE_0.comp018green_esd_clamp_v5p0_DVSS_0/pmos_6p0_CDNS_406619531455_0.D.t2 DVDD.t72 pfet_06v0 ad=1.3p pd=5.52u as=1.3p ps=5.52u w=5u l=0.7u
X96 DVDD.t99 GF_NI_DVSS_BASE_0.comp018green_esd_clamp_v5p0_DVSS_0/pmos_6p0_CDNS_406619531455_0.D.t70 DVSS.t92 DVSS.t91 nfet_06v0 ad=12.999999p pd=50.52u as=12.999999p ps=50.52u w=50u l=0.7u
X97 DVDD.t21 GF_NI_DVSS_BASE_0.comp018green_esd_clamp_v5p0_DVSS_0/pmos_6p0_CDNS_406619531456_0.D.t25 GF_NI_DVSS_BASE_0.comp018green_esd_clamp_v5p0_DVSS_0/pmos_6p0_CDNS_406619531455_0.D.t3 DVDD.t20 pfet_06v0 ad=1.3p pd=5.52u as=1.3p ps=5.52u w=5u l=0.7u
X98 GF_NI_DVSS_BASE_0.comp018green_esd_clamp_v5p0_DVSS_0/comp018green_esd_rc_v5p0_0.ppolyf_u_CDNS_406619531453_3.MINUS.t0 GF_NI_DVSS_BASE_0.comp018green_esd_clamp_v5p0_DVSS_0/comp018green_esd_rc_v5p0_0.ppolyf_u_CDNS_406619531453_1.PLUS.t0 DVDD.t13 ppolyf_u r_width=0.8u r_length=63.854996u
X99 DVDD.t89 GF_NI_DVSS_BASE_0.comp018green_esd_clamp_v5p0_DVSS_0/pmos_6p0_CDNS_406619531455_0.D.t71 DVSS.t90 DVSS.t89 nfet_06v0 ad=12.999999p pd=50.52u as=21.999998p ps=0.10088m w=50u l=0.7u
X100 DVDD.t105 GF_NI_DVSS_BASE_0.comp018green_esd_clamp_v5p0_DVSS_0/pmos_6p0_CDNS_406619531455_0.D.t72 DVSS.t88 DVSS.t87 nfet_06v0 ad=12.999999p pd=50.52u as=12.999999p ps=50.52u w=50u l=0.7u
X101 DVSS.t86 GF_NI_DVSS_BASE_0.comp018green_esd_clamp_v5p0_DVSS_0/pmos_6p0_CDNS_406619531455_0.D.t73 DVDD.t119 DVSS.t85 nfet_06v0 ad=12.999999p pd=50.52u as=12.999999p ps=50.52u w=50u l=0.7u
X102 DVSS.t84 GF_NI_DVSS_BASE_0.comp018green_esd_clamp_v5p0_DVSS_0/pmos_6p0_CDNS_406619531455_0.D.t74 DVDD.t117 DVSS.t83 nfet_06v0 ad=12.999999p pd=50.52u as=12.999999p ps=50.52u w=50u l=0.7u
X103 DVSS.t82 GF_NI_DVSS_BASE_0.comp018green_esd_clamp_v5p0_DVSS_0/pmos_6p0_CDNS_406619531455_0.D.t75 DVDD.t114 DVSS.t81 nfet_06v0 ad=12.999999p pd=50.52u as=12.999999p ps=50.52u w=50u l=0.7u
X104 DVSS.t24 GF_NI_DVSS_BASE_0.comp018green_esd_clamp_v5p0_DVSS_0/pmos_6p0_CDNS_406619531456_0.D.t26 GF_NI_DVSS_BASE_0.comp018green_esd_clamp_v5p0_DVSS_0/pmos_6p0_CDNS_406619531455_0.D.t7 DVSS.t23 nfet_06v0 ad=2.2p pd=10.879999u as=1.3p ps=5.52u w=5u l=0.7u
X105 GF_NI_DVSS_BASE_0.comp018green_esd_clamp_v5p0_DVSS_0/comp018green_esd_rc_v5p0_0.VRC.t7 DVSS.t1 cap_nmos_06v0 c_width=25u c_length=10u
X106 GF_NI_DVSS_BASE_0.comp018green_esd_clamp_v5p0_DVSS_0/comp018green_esd_rc_v5p0_0.VRC.t8 DVSS.t20 cap_nmos_06v0 c_width=25u c_length=10u
X107 DVSS.t80 GF_NI_DVSS_BASE_0.comp018green_esd_clamp_v5p0_DVSS_0/pmos_6p0_CDNS_406619531455_0.D.t76 DVDD.t113 DVSS.t79 nfet_06v0 ad=12.999999p pd=50.52u as=12.999999p ps=50.52u w=50u l=0.7u
X108 GF_NI_DVSS_BASE_0.comp018green_esd_clamp_v5p0_DVSS_0/comp018green_esd_rc_v5p0_0.ppolyf_u_CDNS_406619531453_4.MINUS.t1 GF_NI_DVSS_BASE_0.comp018green_esd_clamp_v5p0_DVSS_0/comp018green_esd_rc_v5p0_0.ppolyf_u_CDNS_406619531453_5.PLUS.t0 DVDD.t37 ppolyf_u r_width=0.8u r_length=63.854996u
X109 GF_NI_DVSS_BASE_0.comp018green_esd_clamp_v5p0_DVSS_0/pmos_6p0_CDNS_406619531456_0.D.t1 GF_NI_DVSS_BASE_0.comp018green_esd_clamp_v5p0_DVSS_0/pmos_6p0_CDNS_406619531452_0.D.t8 DVSS.t5 DVSS.t4 nfet_06v0 ad=1.3p pd=5.52u as=1.3p ps=5.52u w=5u l=0.7u
X110 DVDD.t125 GF_NI_DVSS_BASE_0.comp018green_esd_clamp_v5p0_DVSS_0/pmos_6p0_CDNS_406619531455_0.D.t77 DVSS.t78 DVSS.t77 nfet_06v0 ad=12.999999p pd=50.52u as=12.999999p ps=50.52u w=50u l=0.7u
X111 DVDD.t103 GF_NI_DVSS_BASE_0.comp018green_esd_clamp_v5p0_DVSS_0/pmos_6p0_CDNS_406619531455_0.D.t78 DVSS.t76 DVSS.t75 nfet_06v0 ad=12.999999p pd=50.52u as=12.999999p ps=50.52u w=50u l=0.7u
X112 DVSS.t13 GF_NI_DVSS_BASE_0.comp018green_esd_clamp_v5p0_DVSS_0/pmos_6p0_CDNS_406619531452_0.D.t9 GF_NI_DVSS_BASE_0.comp018green_esd_clamp_v5p0_DVSS_0/pmos_6p0_CDNS_406619531456_0.D.t1 DVSS.t12 nfet_06v0 ad=1.3p pd=5.52u as=1.3p ps=5.52u w=5u l=0.7u
X113 GF_NI_DVSS_BASE_0.comp018green_esd_clamp_v5p0_DVSS_0/comp018green_esd_rc_v5p0_0.VRC.t9 DVSS.t16 cap_nmos_06v0 c_width=25u c_length=10u
D1 DVSS.t26 DVDD.t159 diode_nd2ps_06v0 pj=82u area=40p
X114 DVDD.t2 GF_NI_DVSS_BASE_0.comp018green_esd_clamp_v5p0_DVSS_0/comp018green_esd_rc_v5p0_0.ppolyf_u_CDNS_406619531453_2.PLUS.t1 DVDD.t1 ppolyf_u r_width=0.8u r_length=63.854996u
X115 GF_NI_DVSS_BASE_0.comp018green_esd_clamp_v5p0_DVSS_0/comp018green_esd_rc_v5p0_0.VRC.t10 DVSS.t17 cap_nmos_06v0 c_width=25u c_length=10u
X116 DVSS.t74 GF_NI_DVSS_BASE_0.comp018green_esd_clamp_v5p0_DVSS_0/pmos_6p0_CDNS_406619531455_0.D.t79 DVDD.t121 DVSS.t73 nfet_06v0 ad=12.999999p pd=50.52u as=12.999999p ps=50.52u w=50u l=0.7u
X117 DVDD.t97 GF_NI_DVSS_BASE_0.comp018green_esd_clamp_v5p0_DVSS_0/pmos_6p0_CDNS_406619531455_0.D.t80 DVSS.t72 DVSS.t71 nfet_06v0 ad=12.999999p pd=50.52u as=12.999999p ps=50.52u w=50u l=0.7u
D2 DVSS.t26 DVDD.t160 diode_nd2ps_06v0 pj=82u area=40p
X118 DVDD.t27 GF_NI_DVSS_BASE_0.comp018green_esd_clamp_v5p0_DVSS_0/comp018green_esd_rc_v5p0_0.VRC.t11 GF_NI_DVSS_BASE_0.comp018green_esd_clamp_v5p0_DVSS_0/pmos_6p0_CDNS_406619531452_0.D.t1 DVDD.t26 pfet_06v0 ad=1.3p pd=5.52u as=1.3p ps=5.52u w=5u l=0.7u
X119 GF_NI_DVSS_BASE_0.comp018green_esd_clamp_v5p0_DVSS_0/pmos_6p0_CDNS_406619531452_0.D.t1 GF_NI_DVSS_BASE_0.comp018green_esd_clamp_v5p0_DVSS_0/comp018green_esd_rc_v5p0_0.VRC.t12 DVDD.t41 DVDD.t40 pfet_06v0 ad=1.3p pd=5.52u as=2.2p ps=10.879999u w=5u l=0.7u
X120 DVDD.t141 GF_NI_DVSS_BASE_0.comp018green_esd_clamp_v5p0_DVSS_0/pmos_6p0_CDNS_406619531455_0.D.t81 DVSS.t70 DVSS.t69 nfet_06v0 ad=12.999999p pd=50.52u as=12.999999p ps=50.52u w=50u l=0.7u
X121 DVDD.t110 GF_NI_DVSS_BASE_0.comp018green_esd_clamp_v5p0_DVSS_0/pmos_6p0_CDNS_406619531455_0.D.t82 DVSS.t68 DVSS.t67 nfet_06v0 ad=12.999999p pd=50.52u as=12.999999p ps=50.52u w=50u l=0.7u
X122 DVSS.t66 GF_NI_DVSS_BASE_0.comp018green_esd_clamp_v5p0_DVSS_0/pmos_6p0_CDNS_406619531455_0.D.t83 DVDD.t112 DVSS.t65 nfet_06v0 ad=12.999999p pd=50.52u as=12.999999p ps=50.52u w=50u l=0.7u
X123 DVDD.t39 GF_NI_DVSS_BASE_0.comp018green_esd_clamp_v5p0_DVSS_0/pmos_6p0_CDNS_406619531456_0.D.t27 GF_NI_DVSS_BASE_0.comp018green_esd_clamp_v5p0_DVSS_0/pmos_6p0_CDNS_406619531455_0.D.t8 DVDD.t38 pfet_06v0 ad=1.3p pd=5.52u as=1.3p ps=5.52u w=5u l=0.7u
X124 GF_NI_DVSS_BASE_0.comp018green_esd_clamp_v5p0_DVSS_0/comp018green_esd_rc_v5p0_0.VRC.t13 DVSS.t25 cap_nmos_06v0 c_width=25u c_length=10u
X125 DVDD.t161 DVSS.t27 cap_nmos_06v0 c_width=15u c_length=15u
X126 DVDD.t118 GF_NI_DVSS_BASE_0.comp018green_esd_clamp_v5p0_DVSS_0/pmos_6p0_CDNS_406619531455_0.D.t84 DVSS.t64 DVSS.t63 nfet_06v0 ad=12.999999p pd=50.52u as=12.999999p ps=50.52u w=50u l=0.7u
X127 DVDD.t120 GF_NI_DVSS_BASE_0.comp018green_esd_clamp_v5p0_DVSS_0/pmos_6p0_CDNS_406619531455_0.D.t85 DVSS.t62 DVSS.t61 nfet_06v0 ad=12.999999p pd=50.52u as=12.999999p ps=50.52u w=50u l=0.7u
X128 DVDD.t44 GF_NI_DVSS_BASE_0.comp018green_esd_clamp_v5p0_DVSS_0/pmos_6p0_CDNS_406619531456_0.D.t28 GF_NI_DVSS_BASE_0.comp018green_esd_clamp_v5p0_DVSS_0/pmos_6p0_CDNS_406619531455_0.D.t9 DVDD.t43 pfet_06v0 ad=1.3p pd=5.52u as=1.3p ps=5.52u w=5u l=0.7u
X129 DVDD.t108 GF_NI_DVSS_BASE_0.comp018green_esd_clamp_v5p0_DVSS_0/pmos_6p0_CDNS_406619531455_0.D.t86 DVSS.t60 DVSS.t59 nfet_06v0 ad=12.999999p pd=50.52u as=12.999999p ps=50.52u w=50u l=0.7u
X130 DVDD.t153 GF_NI_DVSS_BASE_0.comp018green_esd_clamp_v5p0_DVSS_0/pmos_6p0_CDNS_406619531455_0.D.t87 DVSS.t58 DVSS.t57 nfet_06v0 ad=12.999999p pd=50.52u as=21.999998p ps=0.10088m w=50u l=0.7u
X131 DVSS.t56 GF_NI_DVSS_BASE_0.comp018green_esd_clamp_v5p0_DVSS_0/pmos_6p0_CDNS_406619531455_0.D.t88 DVDD.t143 DVSS.t55 nfet_06v0 ad=12.999999p pd=50.52u as=12.999999p ps=50.52u w=50u l=0.7u
X132 GF_NI_DVSS_BASE_0.comp018green_esd_clamp_v5p0_DVSS_0/pmos_6p0_CDNS_406619531455_0.D.t6 GF_NI_DVSS_BASE_0.comp018green_esd_clamp_v5p0_DVSS_0/pmos_6p0_CDNS_406619531456_0.D.t29 DVDD.t23 DVDD.t22 pfet_06v0 ad=1.3p pd=5.52u as=1.3p ps=5.52u w=5u l=0.7u
X133 DVDD.t25 GF_NI_DVSS_BASE_0.comp018green_esd_clamp_v5p0_DVSS_0/pmos_6p0_CDNS_406619531456_0.D.t30 GF_NI_DVSS_BASE_0.comp018green_esd_clamp_v5p0_DVSS_0/pmos_6p0_CDNS_406619531455_0.D.t5 DVDD.t24 pfet_06v0 ad=1.3p pd=5.52u as=1.3p ps=5.52u w=5u l=0.7u
X134 DVSS.t54 GF_NI_DVSS_BASE_0.comp018green_esd_clamp_v5p0_DVSS_0/pmos_6p0_CDNS_406619531455_0.D.t89 DVDD.t145 DVSS.t53 nfet_06v0 ad=12.999999p pd=50.52u as=12.999999p ps=50.52u w=50u l=0.7u
X135 DVDD.t51 GF_NI_DVSS_BASE_0.comp018green_esd_clamp_v5p0_DVSS_0/pmos_6p0_CDNS_406619531456_0.D.t31 GF_NI_DVSS_BASE_0.comp018green_esd_clamp_v5p0_DVSS_0/pmos_6p0_CDNS_406619531455_0.D.t11 DVDD.t50 pfet_06v0 ad=2.2p pd=10.879999u as=1.3p ps=5.52u w=5u l=0.7u
D3 DVSS.t26 DVDD.t162 diode_nd2ps_06v0 pj=82u area=40p
X136 DVSS.t52 GF_NI_DVSS_BASE_0.comp018green_esd_clamp_v5p0_DVSS_0/pmos_6p0_CDNS_406619531455_0.D.t90 DVDD.t80 DVSS.t51 nfet_06v0 ad=12.999999p pd=50.52u as=12.999999p ps=50.52u w=50u l=0.7u
X137 DVDD.t135 GF_NI_DVSS_BASE_0.comp018green_esd_clamp_v5p0_DVSS_0/pmos_6p0_CDNS_406619531455_0.D.t91 DVSS.t50 DVSS.t49 nfet_06v0 ad=12.999999p pd=50.52u as=12.999999p ps=50.52u w=50u l=0.7u
X138 DVDD.t150 GF_NI_DVSS_BASE_0.comp018green_esd_clamp_v5p0_DVSS_0/pmos_6p0_CDNS_406619531455_0.D.t92 DVSS.t48 DVSS.t47 nfet_06v0 ad=12.999999p pd=50.52u as=12.999999p ps=50.52u w=50u l=0.7u
X139 DVDD.t146 GF_NI_DVSS_BASE_0.comp018green_esd_clamp_v5p0_DVSS_0/pmos_6p0_CDNS_406619531455_0.D.t93 DVSS.t46 DVSS.t45 nfet_06v0 ad=12.999999p pd=50.52u as=12.999999p ps=50.52u w=50u l=0.7u
X140 DVDD.t107 GF_NI_DVSS_BASE_0.comp018green_esd_clamp_v5p0_DVSS_0/pmos_6p0_CDNS_406619531455_0.D.t94 DVSS.t44 DVSS.t43 nfet_06v0 ad=12.999999p pd=50.52u as=12.999999p ps=50.52u w=50u l=0.7u